Info: SIMULATION PARAMETERS:
Info: TIMESTEP               2
Info: NUMBER OF STEPS        3580000
Info: STEPS PER CYCLE        10
Info: PERIODIC CELL BASIS 1  55.4984 0 0
Info: PERIODIC CELL BASIS 2  0 51.1285 0
Info: PERIODIC CELL BASIS 3  0 0 76.6649
Info: PERIODIC CELL CENTER   14.5 22 7
Info: WRAPPING WATERS AROUND PERIODIC BOUNDARIES ON OUTPUT.
Info: WRAPPING ALL CLUSTERS AROUND PERIODIC BOUNDARIES ON OUTPUT.
Info: FIRST LDB TIMESTEP     50
Info: LAST LDB TIMESTEP     -1
Info: HOM BACKGROUND SCALING 1
Info: PME BACKGROUND SCALING 1
Info: MIN ATOMS PER PATCH    40
Info: VELOCITY FILE          4pti_wb_eq_03.restart.vel
Info: CENTER OF MASS MOVING INITIALLY? NO
Info: DIELECTRIC             1
Info: EXCLUDE                SCALED ONE-FOUR
Info: 1-4 ELECTROSTATICS SCALED BY 1
Info: MODIFIED 1-4 VDW PARAMETERS WILL BE USED
Info: DCD FILENAME           4pti_wb_eq_04.dcd
Info: DCD FREQUENCY          15000
Info: DCD FIRST STEP         3585000
Info: DCD FILE WILL CONTAIN UNIT CELL DATA
Info: XST FILENAME           4pti_wb_eq_04.xst
Info: XST FREQUENCY          15000
Info: NO VELOCITY DCD OUTPUT
Info: NO FORCE DCD OUTPUT
Info: OUTPUT FILENAME        4pti_wb_eq_04
Info: BINARY OUTPUT FILES WILL BE USED
Info: RESTART FILENAME       4pti_wb_eq_04.restart
Info: RESTART FREQUENCY      30000
Info: BINARY RESTART FILES WILL BE USED
Info: SWITCHING ACTIVE
Info: SWITCHING ON           10
Info: SWITCHING OFF          12
Info: PAIRLIST DISTANCE      14
Info: PAIRLIST SHRINK RATE   0.01
Info: PAIRLIST GROW RATE     0.01
Info: PAIRLIST TRIGGER       0.3
Info: PAIRLISTS PER CYCLE    2
Info: PAIRLISTS ENABLED
Info: MARGIN                 5
Info: HYDROGEN GROUP CUTOFF  2.5
Info: PATCH DIMENSION        21.5
Info: ENERGY OUTPUT STEPS    15000
Info: CROSSTERM ENERGY INCLUDED IN DIHEDRAL
Info: TIMING OUTPUT STEPS    150000
Info: LANGEVIN DYNAMICS ACTIVE
Info: LANGEVIN TEMPERATURE   310
Info: LANGEVIN USING BBK INTEGRATOR
Info: LANGEVIN DAMPING COEFFICIENT IS 1 INVERSE PS
Info: LANGEVIN DYNAMICS NOT APPLIED TO HYDROGENS
Info: LANGEVIN PISTON PRESSURE CONTROL ACTIVE
Info:        TARGET PRESSURE IS 1.01325 BAR
Info:     OSCILLATION PERIOD IS 200 FS
Info:             DECAY TIME IS 50 FS
Info:     PISTON TEMPERATURE IS 310 K
Info:       PRESSURE CONTROL IS GROUP-BASED
Info:    INITIAL STRAIN RATE IS -8.69425e-05 -8.69425e-05 -3.81134e-05
Info:       CELL FLUCTUATION IS ANISOTROPIC
Info:     SHAPE OF CELL IS CONSTRAINED IN X-Y PLANE
Info: PARTICLE MESH EWALD (PME) ACTIVE
Info: PME TOLERANCE               1e-06
Info: PME EWALD COEFFICIENT       0.257952
Info: PME INTERPOLATION ORDER     4
Info: PME GRID DIMENSIONS         56 54 80
Info: PME MAXIMUM GRID SPACING    1
Info: FULL ELECTROSTATIC EVALUATION FREQUENCY      2
Info: USING VERLET I (r-RESPA) MTS SCHEME.
Info: C1 SPLITTING OF LONG RANGE ELECTROSTATICS
Info: PLACING ATOMS IN PATCHES BY HYDROGEN GROUPS
Info: RIGID BONDS TO HYDROGEN : ALL
Info:         ERROR TOLERANCE : 1e-05
Info:          MAX ITERATIONS : 100
Info: RIGID WATER USING SETTLE ALGORITHM
Info: RANDOM NUMBER SEED     1711116141
Info: USE HYDROGEN BONDS?    NO
Info: COORDINATE PDB         4pti_wb2.pdb
Info: STRUCTURE FILE         4pti_wb2.psf
Info: PARAMETER file: CHARMM format!
Info: PARAMETERS             toppar_charmm/par_all36m_prot_additions.prm
Info: PARAMETERS             toppar_charmm/par_all36m_prot.prm
Info: PARAMETERS             toppar_charmm/par_all36_na.prm
Info: PARAMETERS             toppar_charmm/par_all36_carb.prm
Info: PARAMETERS             toppar_charmm/par_all36_lipid.prm
Info: PARAMETERS             toppar_charmm/par_all36_cgenff.prm
Info: PARAMETERS             toppar_charmm/toppar_all36_moreions.str
Info: PARAMETERS             toppar_charmm/toppar_water_ions.str
Info: PARAMETERS             toppar_charmm/toppar_dum_noble_gases.str
Info: PARAMETERS             toppar_charmm/toppar_ions_won.str
Info: PARAMETERS             toppar_charmm/toppar_all36_prot_arg0.str
Info: PARAMETERS             toppar_charmm/toppar_all36_prot_heme.str
Info: PARAMETERS             toppar_charmm/toppar_all36_lipid_sphingo.str
Info: PARAMETERS             toppar_charmm/toppar_all36_lipid_archaeal.str
Info: PARAMETERS             toppar_charmm/toppar_all36_lipid_bacterial.str
Info: PARAMETERS             toppar_charmm/toppar_all36_lipid_cardiolipin.str
Info: PARAMETERS             toppar_charmm/toppar_all36_lipid_cholesterol.str
Info: PARAMETERS             toppar_charmm/toppar_all36_lipid_dag.str
Info: PARAMETERS             toppar_charmm/toppar_all36_lipid_inositol.str
Info: PARAMETERS             toppar_charmm/toppar_all36_lipid_lnp.str
Info: PARAMETERS             toppar_charmm/toppar_all36_lipid_lps.str
Info: PARAMETERS             toppar_charmm/toppar_all36_lipid_mycobacterial.str
Info: PARAMETERS             toppar_charmm/toppar_all36_lipid_miscellaneous.str
Info: PARAMETERS             toppar_charmm/toppar_all36_lipid_model.str
Info: PARAMETERS             toppar_charmm/toppar_all36_lipid_prot.str
Info: PARAMETERS             toppar_charmm/toppar_all36_lipid_tag.str
Info: PARAMETERS             toppar_charmm/toppar_all36_lipid_yeast.str
Info: PARAMETERS             toppar_charmm/toppar_all36_lipid_detergent.str
Info: USING ARITHMETIC MEAN TO COMBINE L-J SIGMA PARAMETERS
Info: BINARY COORDINATES     4pti_wb_eq_03.restart.coor
Info: FIRST TIMESTEP         3580000
Info: SKIPPING rtf SECTION IN STREAM FILE
Info: SKIPPING rtf SECTION IN STREAM FILE
Info: SKIPPING rtf SECTION IN STREAM FILE
Info: SKIPPING rtf SECTION IN STREAM FILE
Info: SKIPPING rtf SECTION IN STREAM FILE
Info: SKIPPING rtf SECTION IN STREAM FILE
Info: SKIPPING rtf SECTION IN STREAM FILE
Info: SKIPPING rtf SECTION IN STREAM FILE
Info: SKIPPING rtf SECTION IN STREAM FILE
Info: SKIPPING rtf SECTION IN STREAM FILE
Info: SKIPPING rtf SECTION IN STREAM FILE
Info: SKIPPING rtf SECTION IN STREAM FILE
Info: SKIPPING rtf SECTION IN STREAM FILE
Info: SKIPPING rtf SECTION IN STREAM FILE
Info: SKIPPING rtf SECTION IN STREAM FILE
Info: SKIPPING rtf SECTION IN STREAM FILE
Info: SKIPPING rtf SECTION IN STREAM FILE
Info: SKIPPING rtf SECTION IN STREAM FILE
Info: SKIPPING rtf SECTION IN STREAM FILE
Info: SKIPPING rtf SECTION IN STREAM FILE
Info: SKIPPING rtf SECTION IN STREAM FILE
Info: SKIPPING rtf SECTION IN STREAM FILE
Info: SUMMARY OF PARAMETERS:
Info: 1251 BONDS
Info: 4182 ANGLES
Info: 11160 DIHEDRAL
Info: 310 IMPROPER
Info: 6 CROSSTERM
Info: 450 VDW
Info: 86 VDW_PAIRS
Info: 0 NBTHOLE_PAIRS
Info: STRUCTURE SUMMARY:
Info: 21955 ATOMS
Info: 14948 BONDS
Info: 8647 ANGLES
Info: 2391 DIHEDRALS
Info: 153 IMPROPERS
Info: 56 CROSSTERMS
Info: 0 EXCLUSIONS
Info: 21501 RIGID BONDS
Info: 44364 DEGREES OF FREEDOM
Info: 7475 HYDROGEN GROUPS
Info: 4 ATOMS IN LARGEST HYDROGEN GROUP
Info: 7475 MIGRATION GROUPS
Info: 4 ATOMS IN LARGEST MIGRATION GROUP
Info: TOTAL MASS = 133004 amu
Info: TOTAL CHARGE = 6 e
Info: MASS DENSITY = 1.01527 g/cm^3
Info: ATOM DENSITY = 0.100924 atoms/A^3
Info: ADDED 25942 IMPLICIT EXCLUSIONS
Info: NONBONDED TABLE R-SQUARED SPACING: 0.0625
Info: NONBONDED TABLE SIZE: 769 POINTS
Info: REMOVING COM VELOCITY 0.0306825 -0.0622576 0.0452767
Info: Updated CUDA force table with 4096 elements.
Info: Updated CUDA LJ table with 450 x 450 elements.
Info: Found 210 unique exclusion lists needing 2068 bytes
TCL: Running for 7500000 steps
ETITLE: TS BOND ANGLE DIHED IMPRP ELECT VDW BOUNDARY MISC KINETIC TOTAL TEMP POTENTIAL TOTAL3 TEMPAVG PRESSURE GPRESSURE VOLUME PRESSAVG GPRESSAVG
ENERGY: 3585000 191.9140 508.0768 527.6026 32.8171 -78066.7854 6819.6613 0.0000 0.0000 13725.2422 -56261.4715 311.3721 -69986.7136 -56226.2614 307.9839 -80.8135 -47.3418 216545.2373 3.3351 3.2719
ENERGY: 4020000 219.9125 516.8930 526.8708 26.6996 -77805.1544 6960.6932 0.0000 0.0000 13660.7355 -55893.3498 309.9087 -69554.0853 -55857.3564 309.6521 123.0237 157.9190 217706.6805 -5.6816 -5.7031
ENERGY: 4440000 191.8294 507.2648 521.4904 28.7263 -77577.1706 6939.9672 0.0000 0.0000 13775.5910 -55612.3014 312.5143 -69387.8925 -55578.0603 309.7021 127.6141 162.9477 218381.0722 7.3517 7.3352
ENERGY: 4875000 199.3051 574.3215 536.4580 40.9442 -77623.3263 6811.6479 0.0000 0.0000 13724.3812 -55736.2684 311.3526 -69460.6496 -55703.0335 309.2698 -35.4039 -6.3358 218279.1213 -1.2285 -1.2215
ENERGY: 5295000 217.3678 511.8722 520.5544 21.7416 -78060.8336 7007.5745 0.0000 0.0000 13540.5488 -56241.1742 307.1821 -69781.7229 -56210.5988 309.7309 -21.4685 8.2285 218388.9399 -2.4947 -2.4997
ENERGY: 5730000 213.3314 505.8824 522.1143 35.1986 -78059.6511 7091.2251 0.0000 0.0000 13551.8828 -56140.0165 307.4393 -69691.8993 -56106.7138 308.3506 222.1353 257.5428 217374.5693 3.6995 3.7280
