Info: SIMULATION PARAMETERS:
Info: TIMESTEP               2
Info: NUMBER OF STEPS        871000
Info: STEPS PER CYCLE        10
Info: PERIODIC CELL BASIS 1  53.8776 0 0
Info: PERIODIC CELL BASIS 2  0 49.6353 0
Info: PERIODIC CELL BASIS 3  0 0 80.9559
Info: PERIODIC CELL CENTER   14.5 22 7
Info: WRAPPING WATERS AROUND PERIODIC BOUNDARIES ON OUTPUT.
Info: WRAPPING ALL CLUSTERS AROUND PERIODIC BOUNDARIES ON OUTPUT.
Info: FIRST LDB TIMESTEP     50
Info: LAST LDB TIMESTEP     -1
Info: HOM BACKGROUND SCALING 1
Info: PME BACKGROUND SCALING 1
Info: MIN ATOMS PER PATCH    40
Info: VELOCITY FILE          4pti_wb_eq.restart.vel
Info: CENTER OF MASS MOVING INITIALLY? NO
Info: DIELECTRIC             1
Info: EXCLUDE                SCALED ONE-FOUR
Info: 1-4 ELECTROSTATICS SCALED BY 1
Info: MODIFIED 1-4 VDW PARAMETERS WILL BE USED
Info: DCD FILENAME           4pti_wb_eq_02.dcd
Info: DCD FREQUENCY          10000
Info: DCD FIRST STEP         880000
Info: DCD FILE WILL CONTAIN UNIT CELL DATA
Info: XST FILENAME           4pti_wb_eq_02.xst
Info: XST FREQUENCY          10000
Info: NO VELOCITY DCD OUTPUT
Info: NO FORCE DCD OUTPUT
Info: OUTPUT FILENAME        4pti_wb_eq_02
Info: BINARY OUTPUT FILES WILL BE USED
Info: RESTART FILENAME       4pti_wb_eq_02.restart
Info: RESTART FREQUENCY      20000
Info: BINARY RESTART FILES WILL BE USED
Info: SWITCHING ACTIVE
Info: SWITCHING ON           10
Info: SWITCHING OFF          12
Info: PAIRLIST DISTANCE      14
Info: PAIRLIST SHRINK RATE   0.01
Info: PAIRLIST GROW RATE     0.01
Info: PAIRLIST TRIGGER       0.3
Info: PAIRLISTS PER CYCLE    2
Info: PAIRLISTS ENABLED
Info: MARGIN                 0.99
Info: HYDROGEN GROUP CUTOFF  2.5
Info: PATCH DIMENSION        17.49
Info: ENERGY OUTPUT STEPS    10000
Info: CROSSTERM ENERGY INCLUDED IN DIHEDRAL
Info: TIMING OUTPUT STEPS    100000
Info: LANGEVIN DYNAMICS ACTIVE
Info: LANGEVIN TEMPERATURE   310
Info: LANGEVIN USING BBK INTEGRATOR
Info: LANGEVIN DAMPING COEFFICIENT IS 1 INVERSE PS
Info: LANGEVIN DYNAMICS NOT APPLIED TO HYDROGENS
Info: LANGEVIN PISTON PRESSURE CONTROL ACTIVE
Info:        TARGET PRESSURE IS 1.01325 BAR
Info:     OSCILLATION PERIOD IS 200 FS
Info:             DECAY TIME IS 50 FS
Info:     PISTON TEMPERATURE IS 310 K
Info:       PRESSURE CONTROL IS GROUP-BASED
Info:    INITIAL STRAIN RATE IS 5.26696e-05 5.26696e-05 2.02862e-05
Info:       CELL FLUCTUATION IS ANISOTROPIC
Info:     SHAPE OF CELL IS CONSTRAINED IN X-Y PLANE
Info: PARTICLE MESH EWALD (PME) ACTIVE
Info: PME TOLERANCE               1e-06
Info: PME EWALD COEFFICIENT       0.257952
Info: PME INTERPOLATION ORDER     4
Info: PME GRID DIMENSIONS         54 54 84
Info: PME MAXIMUM GRID SPACING    1
Info: FULL ELECTROSTATIC EVALUATION FREQUENCY      2
Info: USING VERLET I (r-RESPA) MTS SCHEME.
Info: C1 SPLITTING OF LONG RANGE ELECTROSTATICS
Info: PLACING ATOMS IN PATCHES BY HYDROGEN GROUPS
Info: RIGID BONDS TO HYDROGEN : ALL
Info:         ERROR TOLERANCE : 1e-05
Info:          MAX ITERATIONS : 100
Info: RIGID WATER USING SETTLE ALGORITHM
Info: RANDOM NUMBER SEED     1710947000
Info: USE HYDROGEN BONDS?    NO
Info: COORDINATE PDB         4pti_wb2.pdb
Info: STRUCTURE FILE         4pti_wb2.psf
Info: PARAMETER file: CHARMM format!
Info: PARAMETERS             toppar_charmm/par_all36m_prot_additions.prm
Info: PARAMETERS             toppar_charmm/par_all36m_prot.prm
Info: PARAMETERS             toppar_charmm/par_all36_na.prm
Info: PARAMETERS             toppar_charmm/par_all36_carb.prm
Info: PARAMETERS             toppar_charmm/par_all36_lipid.prm
Info: PARAMETERS             toppar_charmm/par_all36_cgenff.prm
Info: PARAMETERS             toppar_charmm/toppar_all36_moreions.str
Info: PARAMETERS             toppar_charmm/toppar_water_ions.str
Info: PARAMETERS             toppar_charmm/toppar_dum_noble_gases.str
Info: PARAMETERS             toppar_charmm/toppar_ions_won.str
Info: PARAMETERS             toppar_charmm/toppar_all36_prot_arg0.str
Info: PARAMETERS             toppar_charmm/toppar_all36_prot_heme.str
Info: PARAMETERS             toppar_charmm/toppar_all36_lipid_sphingo.str
Info: PARAMETERS             toppar_charmm/toppar_all36_lipid_archaeal.str
Info: PARAMETERS             toppar_charmm/toppar_all36_lipid_bacterial.str
Info: PARAMETERS             toppar_charmm/toppar_all36_lipid_cardiolipin.str
Info: PARAMETERS             toppar_charmm/toppar_all36_lipid_cholesterol.str
Info: PARAMETERS             toppar_charmm/toppar_all36_lipid_dag.str
Info: PARAMETERS             toppar_charmm/toppar_all36_lipid_inositol.str
Info: PARAMETERS             toppar_charmm/toppar_all36_lipid_lnp.str
Info: PARAMETERS             toppar_charmm/toppar_all36_lipid_lps.str
Info: PARAMETERS             toppar_charmm/toppar_all36_lipid_mycobacterial.str
Info: PARAMETERS             toppar_charmm/toppar_all36_lipid_miscellaneous.str
Info: PARAMETERS             toppar_charmm/toppar_all36_lipid_model.str
Info: PARAMETERS             toppar_charmm/toppar_all36_lipid_prot.str
Info: PARAMETERS             toppar_charmm/toppar_all36_lipid_tag.str
Info: PARAMETERS             toppar_charmm/toppar_all36_lipid_yeast.str
Info: PARAMETERS             toppar_charmm/toppar_all36_lipid_detergent.str
Info: USING ARITHMETIC MEAN TO COMBINE L-J SIGMA PARAMETERS
Info: BINARY COORDINATES     4pti_wb_eq.restart.coor
Info: FIRST TIMESTEP         871000
Info: SKIPPING rtf SECTION IN STREAM FILE
Info: SKIPPING rtf SECTION IN STREAM FILE
Info: SKIPPING rtf SECTION IN STREAM FILE
Info: SKIPPING rtf SECTION IN STREAM FILE
Info: SKIPPING rtf SECTION IN STREAM FILE
Info: SKIPPING rtf SECTION IN STREAM FILE
Info: SKIPPING rtf SECTION IN STREAM FILE
Info: SKIPPING rtf SECTION IN STREAM FILE
Info: SKIPPING rtf SECTION IN STREAM FILE
Info: SKIPPING rtf SECTION IN STREAM FILE
Info: SKIPPING rtf SECTION IN STREAM FILE
Info: SKIPPING rtf SECTION IN STREAM FILE
Info: SKIPPING rtf SECTION IN STREAM FILE
Info: SKIPPING rtf SECTION IN STREAM FILE
Info: SKIPPING rtf SECTION IN STREAM FILE
Info: SKIPPING rtf SECTION IN STREAM FILE
Info: SKIPPING rtf SECTION IN STREAM FILE
Info: SKIPPING rtf SECTION IN STREAM FILE
Info: SKIPPING rtf SECTION IN STREAM FILE
Info: SKIPPING rtf SECTION IN STREAM FILE
Info: SKIPPING rtf SECTION IN STREAM FILE
Info: SKIPPING rtf SECTION IN STREAM FILE
Info: SUMMARY OF PARAMETERS:
Info: 1251 BONDS
Info: 4182 ANGLES
Info: 11160 DIHEDRAL
Info: 310 IMPROPER
Info: 6 CROSSTERM
Info: 450 VDW
Info: 86 VDW_PAIRS
Info: 0 NBTHOLE_PAIRS
Info: STRUCTURE SUMMARY:
Info: 21955 ATOMS
Info: 14948 BONDS
Info: 8647 ANGLES
Info: 2391 DIHEDRALS
Info: 153 IMPROPERS
Info: 56 CROSSTERMS
Info: 0 EXCLUSIONS
Info: 21501 RIGID BONDS
Info: 44364 DEGREES OF FREEDOM
Info: 7475 HYDROGEN GROUPS
Info: 4 ATOMS IN LARGEST HYDROGEN GROUP
Info: 7475 MIGRATION GROUPS
Info: 4 ATOMS IN LARGEST MIGRATION GROUP
Info: TOTAL MASS = 133004 amu
Info: TOTAL CHARGE = 6 e
Info: MASS DENSITY = 1.02018 g/cm^3
Info: ATOM DENSITY = 0.101411 atoms/A^3
Info: ADDED 25942 IMPLICIT EXCLUSIONS
Info: NONBONDED TABLE R-SQUARED SPACING: 0.0625
Info: NONBONDED TABLE SIZE: 769 POINTS
Info: REMOVING COM VELOCITY 0.0138825 -0.0604804 0.0465133
Info: Updated CUDA force table with 4096 elements.
Info: Updated CUDA LJ table with 450 x 450 elements.
Info: Found 210 unique exclusion lists needing 2068 bytes
TCL: Running for 2500000 steps
ETITLE: TS BOND ANGLE DIHED IMPRP ELECT VDW BOUNDARY MISC KINETIC TOTAL TEMP POTENTIAL TOTAL3 TEMPAVG PRESSURE GPRESSURE VOLUME PRESSAVG GPRESSAVG
ENERGY: 880000 197.5627 525.2297 519.3971 34.8108 -77947.6475 7016.4424 0.0000 0.0000 13752.9022 -55901.3027 311.9996 -69654.2049 -55866.2623 309.1735 159.2949 191.5540 217759.6300 7.4183 7.4591
ENERGY: 1060000 193.1559 523.4062 537.8428 29.8270 -78012.4096 7131.2066 0.0000 0.0000 13530.7787 -56066.1923 306.9605 -69596.9710 -56027.0658 309.6772 168.6162 202.8845 218572.5729 4.2199 4.2302
ENERGY: 1230000 194.0938 515.5340 526.1868 27.3844 -77703.2873 6890.9584 0.0000 0.0000 13680.8700 -55868.2599 310.3655 -69549.1299 -55833.4649 309.9205 27.8548 63.2340 218508.3110 -0.6336 -0.6382
ENERGY: 1410000 207.5848 533.3735 529.0784 29.4733 -77546.9850 6650.7819 0.0000 0.0000 13675.6645 -55921.0287 310.2474 -69596.6931 -55881.8871 308.2754 -199.5937 -166.6103 217564.2372 4.2766 4.2814
ENERGY: 1580000 194.2544 532.1407 524.2557 32.7179 -77428.9117 6755.4448 0.0000 0.0000 13663.7984 -55726.2998 309.9782 -69390.0982 -55695.5119 309.9770 148.6667 186.1636 216381.9493 5.5311 5.4746
ENERGY: 1760000 203.7036 535.9267 516.3111 25.8650 -77489.1307 6905.7198 0.0000 0.0000 13449.7083 -55851.8963 305.1213 -69301.6046 -55823.0984 308.6553 52.3704 84.8013 218204.1505 0.5547 0.5383
