Info: SIMULATION PARAMETERS:
Info: TIMESTEP               2
Info: NUMBER OF STEPS        3580000
Info: STEPS PER CYCLE        10
Info: PERIODIC CELL BASIS 1  55.4984 0 0
Info: PERIODIC CELL BASIS 2  0 51.1285 0
Info: PERIODIC CELL BASIS 3  0 0 76.6649
Info: PERIODIC CELL CENTER   14.5 22 7
Info: WRAPPING WATERS AROUND PERIODIC BOUNDARIES ON OUTPUT.
Info: WRAPPING ALL CLUSTERS AROUND PERIODIC BOUNDARIES ON OUTPUT.
Info: FIRST LDB TIMESTEP     50
Info: LAST LDB TIMESTEP     -1
Info: HOM BACKGROUND SCALING 1
Info: PME BACKGROUND SCALING 1
Info: MIN ATOMS PER PATCH    40
Info: VELOCITY FILE          4pti_wb_eq_03.restart.vel
Info: CENTER OF MASS MOVING INITIALLY? NO
Info: DIELECTRIC             1
Info: EXCLUDE                SCALED ONE-FOUR
Info: 1-4 ELECTROSTATICS SCALED BY 1
Info: MODIFIED 1-4 VDW PARAMETERS WILL BE USED
Info: DCD FILENAME           4pti_wb_eq_04.dcd
Info: DCD FREQUENCY          15000
Info: DCD FIRST STEP         3585000
Info: DCD FILE WILL CONTAIN UNIT CELL DATA
Info: XST FILENAME           4pti_wb_eq_04.xst
Info: XST FREQUENCY          15000
Info: NO VELOCITY DCD OUTPUT
Info: NO FORCE DCD OUTPUT
Info: OUTPUT FILENAME        4pti_wb_eq_04
Info: BINARY OUTPUT FILES WILL BE USED
Info: RESTART FILENAME       4pti_wb_eq_04.restart
Info: RESTART FREQUENCY      30000
Info: BINARY RESTART FILES WILL BE USED
Info: SWITCHING ACTIVE
Info: SWITCHING ON           10
Info: SWITCHING OFF          12
Info: PAIRLIST DISTANCE      14
Info: PAIRLIST SHRINK RATE   0.01
Info: PAIRLIST GROW RATE     0.01
Info: PAIRLIST TRIGGER       0.3
Info: PAIRLISTS PER CYCLE    2
Info: PAIRLISTS ENABLED
Info: MARGIN                 5
Info: HYDROGEN GROUP CUTOFF  2.5
Info: PATCH DIMENSION        21.5
Info: ENERGY OUTPUT STEPS    15000
Info: CROSSTERM ENERGY INCLUDED IN DIHEDRAL
Info: TIMING OUTPUT STEPS    150000
Info: LANGEVIN DYNAMICS ACTIVE
Info: LANGEVIN TEMPERATURE   310
Info: LANGEVIN USING BBK INTEGRATOR
Info: LANGEVIN DAMPING COEFFICIENT IS 1 INVERSE PS
Info: LANGEVIN DYNAMICS NOT APPLIED TO HYDROGENS
Info: LANGEVIN PISTON PRESSURE CONTROL ACTIVE
Info:        TARGET PRESSURE IS 1.01325 BAR
Info:     OSCILLATION PERIOD IS 200 FS
Info:             DECAY TIME IS 50 FS
Info:     PISTON TEMPERATURE IS 310 K
Info:       PRESSURE CONTROL IS GROUP-BASED
Info:    INITIAL STRAIN RATE IS -8.69425e-05 -8.69425e-05 -3.81134e-05
Info:       CELL FLUCTUATION IS ANISOTROPIC
Info:     SHAPE OF CELL IS CONSTRAINED IN X-Y PLANE
Info: PARTICLE MESH EWALD (PME) ACTIVE
Info: PME TOLERANCE               1e-06
Info: PME EWALD COEFFICIENT       0.257952
Info: PME INTERPOLATION ORDER     4
Info: PME GRID DIMENSIONS         56 54 80
Info: PME MAXIMUM GRID SPACING    1
Info: FULL ELECTROSTATIC EVALUATION FREQUENCY      2
Info: USING VERLET I (r-RESPA) MTS SCHEME.
Info: C1 SPLITTING OF LONG RANGE ELECTROSTATICS
Info: PLACING ATOMS IN PATCHES BY HYDROGEN GROUPS
Info: RIGID BONDS TO HYDROGEN : ALL
Info:         ERROR TOLERANCE : 1e-05
Info:          MAX ITERATIONS : 100
Info: RIGID WATER USING SETTLE ALGORITHM
Info: RANDOM NUMBER SEED     1711455154
Info: USE HYDROGEN BONDS?    NO
Info: COORDINATE PDB         4pti_wb2.pdb
Info: STRUCTURE FILE         4pti_wb2.psf
Info: PARAMETER file: CHARMM format!
Info: PARAMETERS             toppar_charmm/par_all36m_prot_additions.prm
Info: PARAMETERS             toppar_charmm/par_all36m_prot.prm
Info: PARAMETERS             toppar_charmm/par_all36_na.prm
Info: PARAMETERS             toppar_charmm/par_all36_carb.prm
Info: PARAMETERS             toppar_charmm/par_all36_lipid.prm
Info: PARAMETERS             toppar_charmm/par_all36_cgenff.prm
Info: PARAMETERS             toppar_charmm/toppar_all36_moreions.str
Info: PARAMETERS             toppar_charmm/toppar_water_ions.str
Info: PARAMETERS             toppar_charmm/toppar_dum_noble_gases.str
Info: PARAMETERS             toppar_charmm/toppar_ions_won.str
Info: PARAMETERS             toppar_charmm/toppar_all36_prot_arg0.str
Info: PARAMETERS             toppar_charmm/toppar_all36_prot_heme.str
Info: PARAMETERS             toppar_charmm/toppar_all36_lipid_sphingo.str
Info: PARAMETERS             toppar_charmm/toppar_all36_lipid_archaeal.str
Info: PARAMETERS             toppar_charmm/toppar_all36_lipid_bacterial.str
Info: PARAMETERS             toppar_charmm/toppar_all36_lipid_cardiolipin.str
Info: PARAMETERS             toppar_charmm/toppar_all36_lipid_cholesterol.str
Info: PARAMETERS             toppar_charmm/toppar_all36_lipid_dag.str
Info: PARAMETERS             toppar_charmm/toppar_all36_lipid_inositol.str
Info: PARAMETERS             toppar_charmm/toppar_all36_lipid_lnp.str
Info: PARAMETERS             toppar_charmm/toppar_all36_lipid_lps.str
Info: PARAMETERS             toppar_charmm/toppar_all36_lipid_mycobacterial.str
Info: PARAMETERS             toppar_charmm/toppar_all36_lipid_miscellaneous.str
Info: PARAMETERS             toppar_charmm/toppar_all36_lipid_model.str
Info: PARAMETERS             toppar_charmm/toppar_all36_lipid_prot.str
Info: PARAMETERS             toppar_charmm/toppar_all36_lipid_tag.str
Info: PARAMETERS             toppar_charmm/toppar_all36_lipid_yeast.str
Info: PARAMETERS             toppar_charmm/toppar_all36_lipid_detergent.str
Info: USING ARITHMETIC MEAN TO COMBINE L-J SIGMA PARAMETERS
Info: BINARY COORDINATES     4pti_wb_eq_03.restart.coor
Info: FIRST TIMESTEP         3580000
Info: SKIPPING rtf SECTION IN STREAM FILE
Info: SKIPPING rtf SECTION IN STREAM FILE
Info: SKIPPING rtf SECTION IN STREAM FILE
Info: SKIPPING rtf SECTION IN STREAM FILE
Info: SKIPPING rtf SECTION IN STREAM FILE
Info: SKIPPING rtf SECTION IN STREAM FILE
Info: SKIPPING rtf SECTION IN STREAM FILE
Info: SKIPPING rtf SECTION IN STREAM FILE
Info: SKIPPING rtf SECTION IN STREAM FILE
Info: SKIPPING rtf SECTION IN STREAM FILE
Info: SKIPPING rtf SECTION IN STREAM FILE
Info: SKIPPING rtf SECTION IN STREAM FILE
Info: SKIPPING rtf SECTION IN STREAM FILE
Info: SKIPPING rtf SECTION IN STREAM FILE
Info: SKIPPING rtf SECTION IN STREAM FILE
Info: SKIPPING rtf SECTION IN STREAM FILE
Info: SKIPPING rtf SECTION IN STREAM FILE
Info: SKIPPING rtf SECTION IN STREAM FILE
Info: SKIPPING rtf SECTION IN STREAM FILE
Info: SKIPPING rtf SECTION IN STREAM FILE
Info: SKIPPING rtf SECTION IN STREAM FILE
Info: SKIPPING rtf SECTION IN STREAM FILE
Info: SUMMARY OF PARAMETERS:
Info: 1251 BONDS
Info: 4182 ANGLES
Info: 11160 DIHEDRAL
Info: 310 IMPROPER
Info: 6 CROSSTERM
Info: 450 VDW
Info: 86 VDW_PAIRS
Info: 0 NBTHOLE_PAIRS
Info: STRUCTURE SUMMARY:
Info: 21955 ATOMS
Info: 14948 BONDS
Info: 8647 ANGLES
Info: 2391 DIHEDRALS
Info: 153 IMPROPERS
Info: 56 CROSSTERMS
Info: 0 EXCLUSIONS
Info: 21501 RIGID BONDS
Info: 44364 DEGREES OF FREEDOM
Info: 7475 HYDROGEN GROUPS
Info: 4 ATOMS IN LARGEST HYDROGEN GROUP
Info: 7475 MIGRATION GROUPS
Info: 4 ATOMS IN LARGEST MIGRATION GROUP
Info: TOTAL MASS = 133004 amu
Info: TOTAL CHARGE = 6 e
Info: MASS DENSITY = 1.01527 g/cm^3
Info: ATOM DENSITY = 0.100924 atoms/A^3
Info: ADDED 25942 IMPLICIT EXCLUSIONS
Info: NONBONDED TABLE R-SQUARED SPACING: 0.0625
Info: NONBONDED TABLE SIZE: 769 POINTS
Info: REMOVING COM VELOCITY 0.0306825 -0.0622576 0.0452767
Info: Updated CUDA force table with 4096 elements.
Info: Updated CUDA LJ table with 450 x 450 elements.
Info: Found 210 unique exclusion lists needing 2068 bytes
TCL: Running for 7500000 steps
ETITLE: TS BOND ANGLE DIHED IMPRP ELECT VDW BOUNDARY MISC KINETIC TOTAL TEMP POTENTIAL TOTAL3 TEMPAVG PRESSURE GPRESSURE VOLUME PRESSAVG GPRESSAVG
ENERGY: 3585000 184.1642 522.3510 538.9519 35.5364 -77341.7266 6568.2644 0.0000 0.0000 13844.8890 -55647.5697 314.0864 -69492.4588 -55615.2718 311.2049 -342.2558 -315.4080 217792.4993 0.5653 0.5742
ENERGY: 4440000 207.0096 489.7886 531.4412 30.0464 -77621.1454 6740.5926 0.0000 0.0000 13419.2243 -56203.0427 304.4298 -69622.2671 -56172.0214 309.0840 -293.6338 -258.0046 218465.3370 2.7935 2.7861
ENERGY: 5295000 186.4827 533.8360 534.7459 31.8039 -77627.7781 6776.8443 0.0000 0.0000 13553.4701 -56010.5954 307.4753 -69564.0654 -55977.7243 308.0967 -86.6474 -59.2665 218403.2415 0.9938 1.0035
ENERGY: 6135000 203.8694 528.0433 517.5108 24.0875 -77418.2066 6769.6391 0.0000 0.0000 13612.7821 -55762.2744 308.8208 -69375.0564 -55725.0412 309.4414 -59.0378 -32.1305 218338.3884 4.3915 4.3957
ENERGY: 6990000 193.5805 496.5501 513.5333 29.6206 -77774.5604 6800.3594 0.0000 0.0000 13686.4053 -56054.5112 310.4910 -69740.9166 -56024.9517 308.6406 -55.4308 -21.2502 217829.9240 5.1408 5.1647
ENERGY: 7845000 202.1034 540.0639 530.4754 28.3851 -77361.7173 6791.3863 0.0000 0.0000 13620.3779 -55648.9253 308.9931 -69269.3032 -55618.8290 310.1807 -0.2545 34.3046 218277.0946 3.2052 3.2068
