Info: SIMULATION PARAMETERS:
Info: TIMESTEP               2
Info: NUMBER OF STEPS        4650000
Info: STEPS PER CYCLE        10
Info: PERIODIC CELL BASIS 1  67.4458 0 0
Info: PERIODIC CELL BASIS 2  0 62.1351 0
Info: PERIODIC CELL BASIS 3  0 0 51.8147
Info: PERIODIC CELL CENTER   14.5 22 7
Info: WRAPPING WATERS AROUND PERIODIC BOUNDARIES ON OUTPUT.
Info: WRAPPING ALL CLUSTERS AROUND PERIODIC BOUNDARIES ON OUTPUT.
Info: FIRST LDB TIMESTEP     50
Info: LAST LDB TIMESTEP     -1
Info: HOM BACKGROUND SCALING 1
Info: PME BACKGROUND SCALING 1
Info: MIN ATOMS PER PATCH    40
Info: VELOCITY FILE          4pti_wb_eq_04.restart.vel
Info: CENTER OF MASS MOVING INITIALLY? NO
Info: DIELECTRIC             1
Info: EXCLUDE                SCALED ONE-FOUR
Info: 1-4 ELECTROSTATICS SCALED BY 1
Info: MODIFIED 1-4 VDW PARAMETERS WILL BE USED
Info: DCD FILENAME           4pti_wb_eq_05.dcd
Info: DCD FREQUENCY          15000
Info: DCD FIRST STEP         4665000
Info: DCD FILE WILL CONTAIN UNIT CELL DATA
Info: XST FILENAME           4pti_wb_eq_05.xst
Info: XST FREQUENCY          15000
Info: NO VELOCITY DCD OUTPUT
Info: NO FORCE DCD OUTPUT
Info: OUTPUT FILENAME        4pti_wb_eq_05
Info: BINARY OUTPUT FILES WILL BE USED
Info: RESTART FILENAME       4pti_wb_eq_05.restart
Info: RESTART FREQUENCY      30000
Info: BINARY RESTART FILES WILL BE USED
Info: SWITCHING ACTIVE
Info: SWITCHING ON           10
Info: SWITCHING OFF          12
Info: PAIRLIST DISTANCE      14
Info: PAIRLIST SHRINK RATE   0.01
Info: PAIRLIST GROW RATE     0.01
Info: PAIRLIST TRIGGER       0.3
Info: PAIRLISTS PER CYCLE    2
Info: PAIRLISTS ENABLED
Info: MARGIN                 5
Info: HYDROGEN GROUP CUTOFF  2.5
Info: PATCH DIMENSION        21.5
Info: ENERGY OUTPUT STEPS    15000
Info: CROSSTERM ENERGY INCLUDED IN DIHEDRAL
Info: TIMING OUTPUT STEPS    150000
Info: LANGEVIN DYNAMICS ACTIVE
Info: LANGEVIN TEMPERATURE   310
Info: LANGEVIN USING BBK INTEGRATOR
Info: LANGEVIN DAMPING COEFFICIENT IS 1 INVERSE PS
Info: LANGEVIN DYNAMICS NOT APPLIED TO HYDROGENS
Info: LANGEVIN PISTON PRESSURE CONTROL ACTIVE
Info:        TARGET PRESSURE IS 1.01325 BAR
Info:     OSCILLATION PERIOD IS 200 FS
Info:             DECAY TIME IS 50 FS
Info:     PISTON TEMPERATURE IS 310 K
Info:       PRESSURE CONTROL IS GROUP-BASED
Info:    INITIAL STRAIN RATE IS -2.24865e-05 -2.24865e-05 -2.44434e-05
Info:       CELL FLUCTUATION IS ANISOTROPIC
Info:     SHAPE OF CELL IS CONSTRAINED IN X-Y PLANE
Info: PARTICLE MESH EWALD (PME) ACTIVE
Info: PME TOLERANCE               1e-06
Info: PME EWALD COEFFICIENT       0.257952
Info: PME INTERPOLATION ORDER     4
Info: PME GRID DIMENSIONS         72 64 54
Info: PME MAXIMUM GRID SPACING    1
Info: FULL ELECTROSTATIC EVALUATION FREQUENCY      2
Info: USING VERLET I (r-RESPA) MTS SCHEME.
Info: C1 SPLITTING OF LONG RANGE ELECTROSTATICS
Info: PLACING ATOMS IN PATCHES BY HYDROGEN GROUPS
Info: RIGID BONDS TO HYDROGEN : ALL
Info:         ERROR TOLERANCE : 1e-05
Info:          MAX ITERATIONS : 100
Info: RIGID WATER USING SETTLE ALGORITHM
Info: RANDOM NUMBER SEED     1711626414
Info: USE HYDROGEN BONDS?    NO
Info: COORDINATE PDB         4pti_wb2.pdb
Info: STRUCTURE FILE         4pti_wb2.psf
Info: PARAMETER file: CHARMM format!
Info: PARAMETERS             toppar_charmm/par_all36m_prot_additions.prm
Info: PARAMETERS             toppar_charmm/par_all36m_prot.prm
Info: PARAMETERS             toppar_charmm/par_all36_na.prm
Info: PARAMETERS             toppar_charmm/par_all36_carb.prm
Info: PARAMETERS             toppar_charmm/par_all36_lipid.prm
Info: PARAMETERS             toppar_charmm/par_all36_cgenff.prm
Info: PARAMETERS             toppar_charmm/toppar_all36_moreions.str
Info: PARAMETERS             toppar_charmm/toppar_water_ions.str
Info: PARAMETERS             toppar_charmm/toppar_dum_noble_gases.str
Info: PARAMETERS             toppar_charmm/toppar_ions_won.str
Info: PARAMETERS             toppar_charmm/toppar_all36_prot_arg0.str
Info: PARAMETERS             toppar_charmm/toppar_all36_prot_heme.str
Info: PARAMETERS             toppar_charmm/toppar_all36_lipid_sphingo.str
Info: PARAMETERS             toppar_charmm/toppar_all36_lipid_archaeal.str
Info: PARAMETERS             toppar_charmm/toppar_all36_lipid_bacterial.str
Info: PARAMETERS             toppar_charmm/toppar_all36_lipid_cardiolipin.str
Info: PARAMETERS             toppar_charmm/toppar_all36_lipid_cholesterol.str
Info: PARAMETERS             toppar_charmm/toppar_all36_lipid_dag.str
Info: PARAMETERS             toppar_charmm/toppar_all36_lipid_inositol.str
Info: PARAMETERS             toppar_charmm/toppar_all36_lipid_lnp.str
Info: PARAMETERS             toppar_charmm/toppar_all36_lipid_lps.str
Info: PARAMETERS             toppar_charmm/toppar_all36_lipid_mycobacterial.str
Info: PARAMETERS             toppar_charmm/toppar_all36_lipid_miscellaneous.str
Info: PARAMETERS             toppar_charmm/toppar_all36_lipid_model.str
Info: PARAMETERS             toppar_charmm/toppar_all36_lipid_prot.str
Info: PARAMETERS             toppar_charmm/toppar_all36_lipid_tag.str
Info: PARAMETERS             toppar_charmm/toppar_all36_lipid_yeast.str
Info: PARAMETERS             toppar_charmm/toppar_all36_lipid_detergent.str
Info: USING ARITHMETIC MEAN TO COMBINE L-J SIGMA PARAMETERS
Info: BINARY COORDINATES     4pti_wb_eq_04.restart.coor
Info: FIRST TIMESTEP         4650000
Info: SKIPPING rtf SECTION IN STREAM FILE
Info: SKIPPING rtf SECTION IN STREAM FILE
Info: SKIPPING rtf SECTION IN STREAM FILE
Info: SKIPPING rtf SECTION IN STREAM FILE
Info: SKIPPING rtf SECTION IN STREAM FILE
Info: SKIPPING rtf SECTION IN STREAM FILE
Info: SKIPPING rtf SECTION IN STREAM FILE
Info: SKIPPING rtf SECTION IN STREAM FILE
Info: SKIPPING rtf SECTION IN STREAM FILE
Info: SKIPPING rtf SECTION IN STREAM FILE
Info: SKIPPING rtf SECTION IN STREAM FILE
Info: SKIPPING rtf SECTION IN STREAM FILE
Info: SKIPPING rtf SECTION IN STREAM FILE
Info: SKIPPING rtf SECTION IN STREAM FILE
Info: SKIPPING rtf SECTION IN STREAM FILE
Info: SKIPPING rtf SECTION IN STREAM FILE
Info: SKIPPING rtf SECTION IN STREAM FILE
Info: SKIPPING rtf SECTION IN STREAM FILE
Info: SKIPPING rtf SECTION IN STREAM FILE
Info: SKIPPING rtf SECTION IN STREAM FILE
Info: SKIPPING rtf SECTION IN STREAM FILE
Info: SKIPPING rtf SECTION IN STREAM FILE
Info: SUMMARY OF PARAMETERS:
Info: 1251 BONDS
Info: 4182 ANGLES
Info: 11160 DIHEDRAL
Info: 310 IMPROPER
Info: 6 CROSSTERM
Info: 450 VDW
Info: 86 VDW_PAIRS
Info: 0 NBTHOLE_PAIRS
Info: STRUCTURE SUMMARY:
Info: 21955 ATOMS
Info: 14948 BONDS
Info: 8647 ANGLES
Info: 2391 DIHEDRALS
Info: 153 IMPROPERS
Info: 56 CROSSTERMS
Info: 0 EXCLUSIONS
Info: 21501 RIGID BONDS
Info: 44364 DEGREES OF FREEDOM
Info: 7475 HYDROGEN GROUPS
Info: 4 ATOMS IN LARGEST HYDROGEN GROUP
Info: 7475 MIGRATION GROUPS
Info: 4 ATOMS IN LARGEST MIGRATION GROUP
Info: TOTAL MASS = 133004 amu
Info: TOTAL CHARGE = 6 e
Info: MASS DENSITY = 1.01713 g/cm^3
Info: ATOM DENSITY = 0.101109 atoms/A^3
Info: ADDED 25942 IMPLICIT EXCLUSIONS
Info: NONBONDED TABLE R-SQUARED SPACING: 0.0625
Info: NONBONDED TABLE SIZE: 769 POINTS
Info: REMOVING COM VELOCITY 0.0471341 0.0712603 0.00200046
Info: Updated CUDA force table with 4096 elements.
Info: Updated CUDA LJ table with 450 x 450 elements.
Info: Found 210 unique exclusion lists needing 2068 bytes
TCL: Running for 15000000 steps
ETITLE: TS BOND ANGLE DIHED IMPRP ELECT VDW BOUNDARY MISC KINETIC TOTAL TEMP POTENTIAL TOTAL3 TEMPAVG PRESSURE GPRESSURE VOLUME PRESSAVG GPRESSAVG
ENERGY: 4650000 201.8594 531.3955 507.2764 30.6104 -77886.9029 7060.8831 0.0000 0.0000 13698.9288 -55855.9492 310.7752 -69554.8780 -55821.4730 310.7752 341.3897 377.1019 217142.9011 341.3897 377.1019
ENERGY: 5175000 196.7202 468.0840 514.7257 34.3363 -77516.8524 6785.8101 0.0000 0.0000 13734.1040 -55783.0722 311.5731 -69517.1762 -55748.5693 310.0004 19.6325 54.4468 218125.4474 -0.9568 -0.9560
ENERGY: 5700000 202.7000 522.3507 538.0443 32.1476 -77599.2815 6825.5259 0.0000 0.0000 13596.7992 -55881.7138 308.4582 -69478.5130 -55842.7900 308.8353 30.7939 59.0388 218092.9802 -2.0256 -2.0263
ENERGY: 6210000 213.6798 491.7858 534.4673 25.4782 -77476.7997 6825.9926 0.0000 0.0000 13764.9420 -55620.4540 312.2727 -69385.3960 -55591.0240 309.0203 -23.4951 11.5756 218253.5412 -1.0180 -1.0062
ENERGY: 6735000 208.5788 529.3852 515.6795 29.8688 -77637.8109 6941.2599 0.0000 0.0000 13822.5518 -55590.4870 313.5797 -69413.0388 -55555.3930 309.6238 290.2649 318.9250 217586.1533 5.5656 5.5602
ENERGY: 7260000 208.5384 494.2784 539.8650 29.7886 -77412.0586 6697.9162 0.0000 0.0000 13500.4838 -55941.1882 306.2732 -69441.6720 -55906.3555 310.0555 -271.0443 -237.4281 218554.4724 2.6572 2.6652
