Info: SIMULATION PARAMETERS:
Info: TIMESTEP               2
Info: NUMBER OF STEPS        1760000
Info: STEPS PER CYCLE        10
Info: PERIODIC CELL BASIS 1  59.4512 0 0
Info: PERIODIC CELL BASIS 2  0 54.77 0
Info: PERIODIC CELL BASIS 3  0 0 67.0131
Info: PERIODIC CELL CENTER   14.5 22 7
Info: WRAPPING WATERS AROUND PERIODIC BOUNDARIES ON OUTPUT.
Info: WRAPPING ALL CLUSTERS AROUND PERIODIC BOUNDARIES ON OUTPUT.
Info: FIRST LDB TIMESTEP     50
Info: LAST LDB TIMESTEP     -1
Info: HOM BACKGROUND SCALING 1
Info: PME BACKGROUND SCALING 1
Info: MIN ATOMS PER PATCH    40
Info: VELOCITY FILE          4pti_wb_eq_02.restart.vel
Info: CENTER OF MASS MOVING INITIALLY? NO
Info: DIELECTRIC             1
Info: EXCLUDE                SCALED ONE-FOUR
Info: 1-4 ELECTROSTATICS SCALED BY 1
Info: MODIFIED 1-4 VDW PARAMETERS WILL BE USED
Info: DCD FILENAME           4pti_wb_eq_03.dcd
Info: DCD FREQUENCY          10000
Info: DCD FIRST STEP         1770000
Info: DCD FILE WILL CONTAIN UNIT CELL DATA
Info: XST FILENAME           4pti_wb_eq_03.xst
Info: XST FREQUENCY          10000
Info: NO VELOCITY DCD OUTPUT
Info: NO FORCE DCD OUTPUT
Info: OUTPUT FILENAME        4pti_wb_eq_03
Info: BINARY OUTPUT FILES WILL BE USED
Info: RESTART FILENAME       4pti_wb_eq_03.restart
Info: RESTART FREQUENCY      20000
Info: BINARY RESTART FILES WILL BE USED
Info: SWITCHING ACTIVE
Info: SWITCHING ON           10
Info: SWITCHING OFF          12
Info: PAIRLIST DISTANCE      14
Info: PAIRLIST SHRINK RATE   0.01
Info: PAIRLIST GROW RATE     0.01
Info: PAIRLIST TRIGGER       0.3
Info: PAIRLISTS PER CYCLE    2
Info: PAIRLISTS ENABLED
Info: MARGIN                 0.99
Info: HYDROGEN GROUP CUTOFF  2.5
Info: PATCH DIMENSION        17.49
Info: ENERGY OUTPUT STEPS    10000
Info: CROSSTERM ENERGY INCLUDED IN DIHEDRAL
Info: TIMING OUTPUT STEPS    100000
Info: LANGEVIN DYNAMICS ACTIVE
Info: LANGEVIN TEMPERATURE   310
Info: LANGEVIN USING BBK INTEGRATOR
Info: LANGEVIN DAMPING COEFFICIENT IS 1 INVERSE PS
Info: LANGEVIN DYNAMICS NOT APPLIED TO HYDROGENS
Info: LANGEVIN PISTON PRESSURE CONTROL ACTIVE
Info:        TARGET PRESSURE IS 1.01325 BAR
Info:     OSCILLATION PERIOD IS 200 FS
Info:             DECAY TIME IS 50 FS
Info:     PISTON TEMPERATURE IS 310 K
Info:       PRESSURE CONTROL IS GROUP-BASED
Info:    INITIAL STRAIN RATE IS -4.70085e-05 -4.70085e-05 -2.48242e-05
Info:       CELL FLUCTUATION IS ANISOTROPIC
Info:     SHAPE OF CELL IS CONSTRAINED IN X-Y PLANE
Info: PARTICLE MESH EWALD (PME) ACTIVE
Info: PME TOLERANCE               1e-06
Info: PME EWALD COEFFICIENT       0.257952
Info: PME INTERPOLATION ORDER     4
Info: PME GRID DIMENSIONS         60 56 72
Info: PME MAXIMUM GRID SPACING    1
Info: FULL ELECTROSTATIC EVALUATION FREQUENCY      2
Info: USING VERLET I (r-RESPA) MTS SCHEME.
Info: C1 SPLITTING OF LONG RANGE ELECTROSTATICS
Info: PLACING ATOMS IN PATCHES BY HYDROGEN GROUPS
Info: RIGID BONDS TO HYDROGEN : ALL
Info:         ERROR TOLERANCE : 1e-05
Info:          MAX ITERATIONS : 100
Info: RIGID WATER USING SETTLE ALGORITHM
Info: RANDOM NUMBER SEED     1711022404
Info: USE HYDROGEN BONDS?    NO
Info: COORDINATE PDB         4pti_wb2.pdb
Info: STRUCTURE FILE         4pti_wb2.psf
Info: PARAMETER file: CHARMM format!
Info: PARAMETERS             toppar_charmm/par_all36m_prot_additions.prm
Info: PARAMETERS             toppar_charmm/par_all36m_prot.prm
Info: PARAMETERS             toppar_charmm/par_all36_na.prm
Info: PARAMETERS             toppar_charmm/par_all36_carb.prm
Info: PARAMETERS             toppar_charmm/par_all36_lipid.prm
Info: PARAMETERS             toppar_charmm/par_all36_cgenff.prm
Info: PARAMETERS             toppar_charmm/toppar_all36_moreions.str
Info: PARAMETERS             toppar_charmm/toppar_water_ions.str
Info: PARAMETERS             toppar_charmm/toppar_dum_noble_gases.str
Info: PARAMETERS             toppar_charmm/toppar_ions_won.str
Info: PARAMETERS             toppar_charmm/toppar_all36_prot_arg0.str
Info: PARAMETERS             toppar_charmm/toppar_all36_prot_heme.str
Info: PARAMETERS             toppar_charmm/toppar_all36_lipid_sphingo.str
Info: PARAMETERS             toppar_charmm/toppar_all36_lipid_archaeal.str
Info: PARAMETERS             toppar_charmm/toppar_all36_lipid_bacterial.str
Info: PARAMETERS             toppar_charmm/toppar_all36_lipid_cardiolipin.str
Info: PARAMETERS             toppar_charmm/toppar_all36_lipid_cholesterol.str
Info: PARAMETERS             toppar_charmm/toppar_all36_lipid_dag.str
Info: PARAMETERS             toppar_charmm/toppar_all36_lipid_inositol.str
Info: PARAMETERS             toppar_charmm/toppar_all36_lipid_lnp.str
Info: PARAMETERS             toppar_charmm/toppar_all36_lipid_lps.str
Info: PARAMETERS             toppar_charmm/toppar_all36_lipid_mycobacterial.str
Info: PARAMETERS             toppar_charmm/toppar_all36_lipid_miscellaneous.str
Info: PARAMETERS             toppar_charmm/toppar_all36_lipid_model.str
Info: PARAMETERS             toppar_charmm/toppar_all36_lipid_prot.str
Info: PARAMETERS             toppar_charmm/toppar_all36_lipid_tag.str
Info: PARAMETERS             toppar_charmm/toppar_all36_lipid_yeast.str
Info: PARAMETERS             toppar_charmm/toppar_all36_lipid_detergent.str
Info: USING ARITHMETIC MEAN TO COMBINE L-J SIGMA PARAMETERS
Info: BINARY COORDINATES     4pti_wb_eq_02.restart.coor
Info: FIRST TIMESTEP         1760000
Info: SKIPPING rtf SECTION IN STREAM FILE
Info: SKIPPING rtf SECTION IN STREAM FILE
Info: SKIPPING rtf SECTION IN STREAM FILE
Info: SKIPPING rtf SECTION IN STREAM FILE
Info: SKIPPING rtf SECTION IN STREAM FILE
Info: SKIPPING rtf SECTION IN STREAM FILE
Info: SKIPPING rtf SECTION IN STREAM FILE
Info: SKIPPING rtf SECTION IN STREAM FILE
Info: SKIPPING rtf SECTION IN STREAM FILE
Info: SKIPPING rtf SECTION IN STREAM FILE
Info: SKIPPING rtf SECTION IN STREAM FILE
Info: SKIPPING rtf SECTION IN STREAM FILE
Info: SKIPPING rtf SECTION IN STREAM FILE
Info: SKIPPING rtf SECTION IN STREAM FILE
Info: SKIPPING rtf SECTION IN STREAM FILE
Info: SKIPPING rtf SECTION IN STREAM FILE
Info: SKIPPING rtf SECTION IN STREAM FILE
Info: SKIPPING rtf SECTION IN STREAM FILE
Info: SKIPPING rtf SECTION IN STREAM FILE
Info: SKIPPING rtf SECTION IN STREAM FILE
Info: SKIPPING rtf SECTION IN STREAM FILE
Info: SKIPPING rtf SECTION IN STREAM FILE
Info: SUMMARY OF PARAMETERS:
Info: 1251 BONDS
Info: 4182 ANGLES
Info: 11160 DIHEDRAL
Info: 310 IMPROPER
Info: 6 CROSSTERM
Info: 450 VDW
Info: 86 VDW_PAIRS
Info: 0 NBTHOLE_PAIRS
Info: STRUCTURE SUMMARY:
Info: 21955 ATOMS
Info: 14948 BONDS
Info: 8647 ANGLES
Info: 2391 DIHEDRALS
Info: 153 IMPROPERS
Info: 56 CROSSTERMS
Info: 0 EXCLUSIONS
Info: 21501 RIGID BONDS
Info: 44364 DEGREES OF FREEDOM
Info: 7475 HYDROGEN GROUPS
Info: 4 ATOMS IN LARGEST HYDROGEN GROUP
Info: 7475 MIGRATION GROUPS
Info: 4 ATOMS IN LARGEST MIGRATION GROUP
Info: TOTAL MASS = 133004 amu
Info: TOTAL CHARGE = 6 e
Info: MASS DENSITY = 1.01219 g/cm^3
Info: ATOM DENSITY = 0.100617 atoms/A^3
Info: ADDED 25942 IMPLICIT EXCLUSIONS
Info: NONBONDED TABLE R-SQUARED SPACING: 0.0625
Info: NONBONDED TABLE SIZE: 769 POINTS
Info: REMOVING COM VELOCITY 0.0115544 -0.0187102 -0.00423336
Info: Updated CUDA force table with 4096 elements.
Info: Updated CUDA LJ table with 450 x 450 elements.
Info: Found 210 unique exclusion lists needing 2068 bytes
TCL: Running for 2500000 steps
ETITLE: TS BOND ANGLE DIHED IMPRP ELECT VDW BOUNDARY MISC KINETIC TOTAL TEMP POTENTIAL TOTAL3 TEMPAVG PRESSURE GPRESSURE VOLUME PRESSAVG GPRESSAVG
ENERGY: 1760000 203.7036 535.9268 516.3110 25.8650 -77489.1297 6905.7197 0.0000 0.0000 13449.2219 -55852.3816 305.1103 -69301.6035 -55817.7770 305.1103 50.7838 83.4204 218204.1505 50.7838 83.4204
ENERGY: 2130000 194.8978 520.0891 527.3004 33.4198 -77825.5372 6851.2290 0.0000 0.0000 13558.7380 -56139.8631 307.5948 -69698.6011 -56106.8726 308.9435 -249.7445 -214.0216 218263.5142 7.5348 7.5266
ENERGY: 2490000 204.5454 500.6134 530.5493 24.2002 -77910.7645 6871.1350 0.0000 0.0000 13658.1590 -56121.5622 309.8503 -69779.7212 -56087.7988 307.9940 32.2287 67.9699 216642.0906 2.9012 2.8497
ENERGY: 2860000 201.6835 500.0479 538.7320 25.7262 -77482.8881 6685.0989 0.0000 0.0000 13577.8257 -55953.7739 308.0278 -69531.5996 -55920.9329 308.8231 -331.8089 -290.1730 218177.1417 -2.7529 -2.8086
ENERGY: 3220000 198.2316 521.4697 537.1236 38.8612 -77591.6011 6731.6669 0.0000 0.0000 13624.7164 -55939.5318 309.0916 -69564.2482 -55904.1654 309.7150 -202.4813 -171.2964 217570.3414 -4.9881 -5.0020
ENERGY: 3590000 215.1388 540.0634 524.7536 26.3069 -77775.5740 7023.6728 0.0000 0.0000 13556.6334 -55889.0051 307.5470 -69445.6385 -55854.8201 308.3901 153.2690 188.5125 218336.6211 1.6842 1.6760
