Info: SIMULATION PARAMETERS:
Info: TIMESTEP               2
Info: NUMBER OF STEPS        540000
Info: STEPS PER CYCLE        10
Info: PERIODIC CELL BASIS 1  56.6247 0 0
Info: PERIODIC CELL BASIS 2  0 56.6247 0
Info: PERIODIC CELL BASIS 3  0 0 56.3793
Info: PERIODIC CELL CENTER   0.04 -0.02 -0.05
Info: WRAPPING WATERS AROUND PERIODIC BOUNDARIES ON OUTPUT.
Info: WRAPPING ALL CLUSTERS AROUND PERIODIC BOUNDARIES ON OUTPUT.
Info: FIRST LDB TIMESTEP     50
Info: LAST LDB TIMESTEP     -1
Info: HOM BACKGROUND SCALING 1
Info: PME BACKGROUND SCALING 1
Info: MIN ATOMS PER PATCH    40
Info: VELOCITY FILE          restartfiles/1eru_eq.vel
Info: CENTER OF MASS MOVING INITIALLY? NO
Info: DIELECTRIC             1
Info: EXCLUDE                SCALED ONE-FOUR
Info: 1-4 ELECTROSTATICS SCALED BY 1
Info: MODIFIED 1-4 VDW PARAMETERS WILL BE USED
Info: DCD FILENAME           1eru_prod.dcd
Info: DCD FREQUENCY          10000
Info: DCD FIRST STEP         550000
Info: DCD FILE WILL CONTAIN UNIT CELL DATA
Info: XST FILENAME           1eru_prod.xst
Info: XST FREQUENCY          10000
Info: NO VELOCITY DCD OUTPUT
Info: NO FORCE DCD OUTPUT
Info: OUTPUT FILENAME        1eru_prod
Info: BINARY OUTPUT FILES WILL BE USED
Info: RESTART FILENAME       1eru_prod
Info: RESTART FREQUENCY      50000
Info: RESTART FILES WILL NOT BE OVERWRITTEN
Info: BINARY RESTART FILES WILL BE USED
Info: SWITCHING ACTIVE
Info: SWITCHING ON           10
Info: SWITCHING OFF          12
Info: PAIRLIST DISTANCE      14
Info: PAIRLIST SHRINK RATE   0.01
Info: PAIRLIST GROW RATE     0.01
Info: PAIRLIST TRIGGER       0.3
Info: PAIRLISTS PER CYCLE    2
Info: PAIRLISTS ENABLED
Info: MARGIN                 1
Info: HYDROGEN GROUP CUTOFF  2.5
Info: PATCH DIMENSION        17.5
Info: ENERGY OUTPUT STEPS    10000
Info: CROSSTERM ENERGY INCLUDED IN DIHEDRAL
Info: TIMING OUTPUT STEPS    100000
Info: LANGEVIN DYNAMICS ACTIVE
Info: LANGEVIN TEMPERATURE   300
Info: LANGEVIN USING BBK INTEGRATOR
Info: LANGEVIN DAMPING COEFFICIENT IS 1 INVERSE PS
Info: LANGEVIN DYNAMICS NOT APPLIED TO HYDROGENS
Info: PARTICLE MESH EWALD (PME) ACTIVE
Info: PME TOLERANCE               1e-06
Info: PME EWALD COEFFICIENT       0.257952
Info: PME INTERPOLATION ORDER     4
Info: PME GRID DIMENSIONS         60 60 60
Info: PME MAXIMUM GRID SPACING    1
Info: FULL ELECTROSTATIC EVALUATION FREQUENCY      2
Info: USING VERLET I (r-RESPA) MTS SCHEME.
Info: C1 SPLITTING OF LONG RANGE ELECTROSTATICS
Info: PLACING ATOMS IN PATCHES BY HYDROGEN GROUPS
Info: RIGID BONDS TO HYDROGEN : ALL
Info:         ERROR TOLERANCE : 1e-05
Info:          MAX ITERATIONS : 100
Info: RIGID WATER USING SETTLE ALGORITHM
Info: RANDOM NUMBER SEED     1726140407
Info: USE HYDROGEN BONDS?    NO
Info: COORDINATE PDB         1eru.pdb
Info: STRUCTURE FILE         1eru.psf
Info: PARAMETER file: CHARMM format!
Info: PARAMETERS             ../toppar_charmm/par_all36m_prot_additions.prm
Info: PARAMETERS             ../toppar_charmm/par_all36m_prot.prm
Info: PARAMETERS             ../toppar_charmm/par_all36_na.prm
Info: PARAMETERS             ../toppar_charmm/par_all36_carb.prm
Info: PARAMETERS             ../toppar_charmm/par_all36_lipid.prm
Info: PARAMETERS             ../toppar_charmm/par_all36_cgenff.prm
Info: PARAMETERS             ../toppar_charmm/toppar_all36_moreions.str
Info: PARAMETERS             ../toppar_charmm/toppar_water_ions.str
Info: PARAMETERS             ../toppar_charmm/toppar_dum_noble_gases.str
Info: PARAMETERS             ../toppar_charmm/toppar_ions_won.str
Info: PARAMETERS             ../toppar_charmm/toppar_all36_prot_arg0.str
Info: PARAMETERS             ../toppar_charmm/toppar_all36_prot_heme.str
Info: PARAMETERS             ../toppar_charmm/toppar_all36_lipid_sphingo.str
Info: PARAMETERS             ../toppar_charmm/toppar_all36_lipid_archaeal.str
Info: PARAMETERS             ../toppar_charmm/toppar_all36_lipid_bacterial.str
Info: PARAMETERS             ../toppar_charmm/toppar_all36_lipid_cardiolipin.str
Info: PARAMETERS             ../toppar_charmm/toppar_all36_lipid_cholesterol.str
Info: PARAMETERS             ../toppar_charmm/toppar_all36_lipid_dag.str
Info: PARAMETERS             ../toppar_charmm/toppar_all36_lipid_inositol.str
Info: PARAMETERS             ../toppar_charmm/toppar_all36_lipid_lnp.str
Info: PARAMETERS             ../toppar_charmm/toppar_all36_lipid_lps.str
Info: PARAMETERS             ../toppar_charmm/toppar_all36_lipid_mycobacterial.str
Info: PARAMETERS             ../toppar_charmm/toppar_all36_lipid_miscellaneous.str
Info: PARAMETERS             ../toppar_charmm/toppar_all36_lipid_model.str
Info: PARAMETERS             ../toppar_charmm/toppar_all36_lipid_prot.str
Info: PARAMETERS             ../toppar_charmm/toppar_all36_lipid_tag.str
Info: PARAMETERS             ../toppar_charmm/toppar_all36_lipid_yeast.str
Info: PARAMETERS             ../toppar_charmm/toppar_all36_lipid_detergent.str
Info: USING ARITHMETIC MEAN TO COMBINE L-J SIGMA PARAMETERS
Info: BINARY COORDINATES     restartfiles/1eru_eq.coor
Info: FIRST TIMESTEP         540000
Info: SKIPPING rtf SECTION IN STREAM FILE
Info: SKIPPING rtf SECTION IN STREAM FILE
Info: SKIPPING rtf SECTION IN STREAM FILE
Info: SKIPPING rtf SECTION IN STREAM FILE
Info: SKIPPING rtf SECTION IN STREAM FILE
Info: SKIPPING rtf SECTION IN STREAM FILE
Info: SKIPPING rtf SECTION IN STREAM FILE
Info: SKIPPING rtf SECTION IN STREAM FILE
Info: SKIPPING rtf SECTION IN STREAM FILE
Info: SKIPPING rtf SECTION IN STREAM FILE
Info: SKIPPING rtf SECTION IN STREAM FILE
Info: SKIPPING rtf SECTION IN STREAM FILE
Info: SKIPPING rtf SECTION IN STREAM FILE
Info: SKIPPING rtf SECTION IN STREAM FILE
Info: SKIPPING rtf SECTION IN STREAM FILE
Info: SKIPPING rtf SECTION IN STREAM FILE
Info: SKIPPING rtf SECTION IN STREAM FILE
Info: SKIPPING rtf SECTION IN STREAM FILE
Info: SKIPPING rtf SECTION IN STREAM FILE
Info: SKIPPING rtf SECTION IN STREAM FILE
Info: SKIPPING rtf SECTION IN STREAM FILE
Info: SKIPPING rtf SECTION IN STREAM FILE
Info: SUMMARY OF PARAMETERS:
Info: 1251 BONDS
Info: 4182 ANGLES
Info: 11160 DIHEDRAL
Info: 310 IMPROPER
Info: 6 CROSSTERM
Info: 450 VDW
Info: 86 VDW_PAIRS
Info: 0 NBTHOLE_PAIRS
Info: STRUCTURE SUMMARY:
Info: 18439 ATOMS
Info: 12852 BONDS
Info: 8591 ANGLES
Info: 4368 DIHEDRALS
Info: 264 IMPROPERS
Info: 103 CROSSTERMS
Info: 0 EXCLUSIONS
Info: 17618 RIGID BONDS
Info: 37699 DEGREES OF FREEDOM
Info: 6424 HYDROGEN GROUPS
Info: 4 ATOMS IN LARGEST HYDROGEN GROUP
Info: 6424 MIGRATION GROUPS
Info: 4 ATOMS IN LARGEST MIGRATION GROUP
Info: TOTAL MASS = 112671 amu
Info: TOTAL CHARGE = -5 e
Info: MASS DENSITY = 1.035 g/cm^3
Info: ATOM DENSITY = 0.102001 atoms/A^3
Info: ADDED 25753 IMPLICIT EXCLUSIONS
Info: NONBONDED TABLE R-SQUARED SPACING: 0.0625
Info: NONBONDED TABLE SIZE: 769 POINTS
Info: REMOVING COM VELOCITY 0.0811733 -0.00855503 0.025778
Info: Updated CUDA force table with 4096 elements.
Info: Updated CUDA LJ table with 450 x 450 elements.
Info: Found 244 unique exclusion lists needing 752 bytes
TCL: Running for 5000000 steps
ETITLE: TS BOND ANGLE DIHED IMPRP ELECT VDW BOUNDARY MISC KINETIC TOTAL TEMP POTENTIAL TOTAL3 TEMPAVG PRESSURE GPRESSURE VOLUME PRESSAVG GPRESSAVG
ENERGY: 540000 326.4457 906.5121 963.7429 59.3458 -63561.4670 5160.6600 0.0000 0.0000 11215.0570 -44929.7035 299.4071 -56144.7605 -44894.1334 299.4071 -394.8721 -357.5607 180772.3339 -394.8721 -357.5607
ENERGY: 1540000 304.3968 870.0321 987.7692 66.7893 -63820.4517 5367.6555 0.0000 0.0000 11183.6833 -45040.1256 298.5695 -56223.8089 -45004.8015 298.7666 78.9725 101.8969 180772.3339 -70.1442 -70.1343
ENERGY: 2540000 303.5606 934.5059 965.9796 51.1206 -63931.6355 5317.7603 0.0000 0.0000 11227.8513 -45130.8572 299.7486 -56358.7085 -45096.3473 298.2097 -188.3189 -164.4462 180772.3339 -73.1826 -73.1924
ENERGY: 3540000 321.2803 895.6804 975.5137 52.6005 -63637.1729 5202.3125 0.0000 0.0000 11240.8308 -44948.9548 300.0951 -56189.7856 -44913.8060 298.8580 -283.4227 -251.0607 180772.3339 -64.7047 -64.7196
ENERGY: 4540000 316.9565 892.8513 978.6513 56.8019 -63649.9695 5294.4474 0.0000 0.0000 11250.5541 -44859.7069 300.3547 -56110.2610 -44826.4687 297.2932 -198.1060 -156.4449 180772.3339 -95.3137 -95.3071
ENERGY: 5540000 333.2946 901.4701 996.9697 52.4296 -64061.7651 5485.4422 0.0000 0.0000 11154.3837 -45137.7752 297.7873 -56292.1589 -45101.4490 299.5974 296.7211 329.8212 180772.3339 -41.4301 -41.4615
