Info: SIMULATION PARAMETERS:
Info: TIMESTEP               2
Info: NUMBER OF STEPS        0
Info: STEPS PER CYCLE        10
Info: PERIODIC CELL BASIS 1  63 0 0
Info: PERIODIC CELL BASIS 2  0 63 0
Info: PERIODIC CELL BASIS 3  0 0 63
Info: PERIODIC CELL CENTER   0.05 -0.09 0.04
Info: WRAPPING WATERS AROUND PERIODIC BOUNDARIES ON OUTPUT.
Info: WRAPPING ALL CLUSTERS AROUND PERIODIC BOUNDARIES ON OUTPUT.
Info: FIRST LDB TIMESTEP     50
Info: LAST LDB TIMESTEP     -1
Info: HOM BACKGROUND SCALING 1
Info: PME BACKGROUND SCALING 1
Info: MIN ATOMS PER PATCH    40
Info: INITIAL TEMPERATURE    300
Info: CENTER OF MASS MOVING INITIALLY? NO
Info: DIELECTRIC             1
Info: EXCLUDE                SCALED ONE-FOUR
Info: 1-4 ELECTROSTATICS SCALED BY 1
Info: MODIFIED 1-4 VDW PARAMETERS WILL BE USED
Info: DCD FILENAME           4pti_eq.dcd
Info: DCD FREQUENCY          10000
Info: DCD FIRST STEP         10000
Info: DCD FILE WILL CONTAIN UNIT CELL DATA
Info: XST FILENAME           4pti_eq.xst
Info: XST FREQUENCY          10000
Info: NO VELOCITY DCD OUTPUT
Info: NO FORCE DCD OUTPUT
Info: OUTPUT FILENAME        4pti_eq
Info: BINARY OUTPUT FILES WILL BE USED
Info: RESTART FILENAME       4pti_eq
Info: RESTART FREQUENCY      10000
Info: RESTART FILES WILL NOT BE OVERWRITTEN
Info: BINARY RESTART FILES WILL BE USED
Info: SWITCHING ACTIVE
Info: SWITCHING ON           10
Info: SWITCHING OFF          12
Info: PAIRLIST DISTANCE      14
Info: PAIRLIST SHRINK RATE   0.01
Info: PAIRLIST GROW RATE     0.01
Info: PAIRLIST TRIGGER       0.3
Info: PAIRLISTS PER CYCLE    2
Info: PAIRLISTS ENABLED
Info: MARGIN                 1
Info: HYDROGEN GROUP CUTOFF  2.5
Info: PATCH DIMENSION        17.5
Info: ENERGY OUTPUT STEPS    10000
Info: CROSSTERM ENERGY INCLUDED IN DIHEDRAL
Info: TIMING OUTPUT STEPS    100000
Info: LANGEVIN DYNAMICS ACTIVE
Info: LANGEVIN TEMPERATURE   300
Info: LANGEVIN USING BBK INTEGRATOR
Info: LANGEVIN DAMPING COEFFICIENT IS 1 INVERSE PS
Info: LANGEVIN DYNAMICS NOT APPLIED TO HYDROGENS
Info: LANGEVIN PISTON PRESSURE CONTROL ACTIVE
Info:        TARGET PRESSURE IS 1.01325 BAR
Info:     OSCILLATION PERIOD IS 200 FS
Info:             DECAY TIME IS 50 FS
Info:     PISTON TEMPERATURE IS 300 K
Info:       PRESSURE CONTROL IS GROUP-BASED
Info:    INITIAL STRAIN RATE IS 0 0 0
Info:       CELL FLUCTUATION IS ANISOTROPIC
Info:     SHAPE OF CELL IS CONSTRAINED IN X-Y PLANE
Info: PARTICLE MESH EWALD (PME) ACTIVE
Info: PME TOLERANCE               1e-06
Info: PME EWALD COEFFICIENT       0.257952
Info: PME INTERPOLATION ORDER     4
Info: PME GRID DIMENSIONS         64 64 64
Info: PME MAXIMUM GRID SPACING    1
Info: FULL ELECTROSTATIC EVALUATION FREQUENCY      2
Info: USING VERLET I (r-RESPA) MTS SCHEME.
Info: C1 SPLITTING OF LONG RANGE ELECTROSTATICS
Info: PLACING ATOMS IN PATCHES BY HYDROGEN GROUPS
Info: RIGID BONDS TO HYDROGEN : ALL
Info:         ERROR TOLERANCE : 1e-05
Info:          MAX ITERATIONS : 100
Info: RIGID WATER USING SETTLE ALGORITHM
Info: RANDOM NUMBER SEED     1725624467
Info: USE HYDROGEN BONDS?    NO
Info: COORDINATE PDB         4pti.pdb
Info: STRUCTURE FILE         4pti.psf
Info: PARAMETER file: CHARMM format!
Info: PARAMETERS             ../toppar_charmm/par_all36m_prot_additions.prm
Info: PARAMETERS             ../toppar_charmm/par_all36m_prot.prm
Info: PARAMETERS             ../toppar_charmm/par_all36_na.prm
Info: PARAMETERS             ../toppar_charmm/par_all36_carb.prm
Info: PARAMETERS             ../toppar_charmm/par_all36_lipid.prm
Info: PARAMETERS             ../toppar_charmm/par_all36_cgenff.prm
Info: PARAMETERS             ../toppar_charmm/toppar_all36_moreions.str
Info: PARAMETERS             ../toppar_charmm/toppar_water_ions.str
Info: PARAMETERS             ../toppar_charmm/toppar_dum_noble_gases.str
Info: PARAMETERS             ../toppar_charmm/toppar_ions_won.str
Info: PARAMETERS             ../toppar_charmm/toppar_all36_prot_arg0.str
Info: PARAMETERS             ../toppar_charmm/toppar_all36_prot_heme.str
Info: PARAMETERS             ../toppar_charmm/toppar_all36_lipid_sphingo.str
Info: PARAMETERS             ../toppar_charmm/toppar_all36_lipid_archaeal.str
Info: PARAMETERS             ../toppar_charmm/toppar_all36_lipid_bacterial.str
Info: PARAMETERS             ../toppar_charmm/toppar_all36_lipid_cardiolipin.str
Info: PARAMETERS             ../toppar_charmm/toppar_all36_lipid_cholesterol.str
Info: PARAMETERS             ../toppar_charmm/toppar_all36_lipid_dag.str
Info: PARAMETERS             ../toppar_charmm/toppar_all36_lipid_inositol.str
Info: PARAMETERS             ../toppar_charmm/toppar_all36_lipid_lnp.str
Info: PARAMETERS             ../toppar_charmm/toppar_all36_lipid_lps.str
Info: PARAMETERS             ../toppar_charmm/toppar_all36_lipid_mycobacterial.str
Info: PARAMETERS             ../toppar_charmm/toppar_all36_lipid_miscellaneous.str
Info: PARAMETERS             ../toppar_charmm/toppar_all36_lipid_model.str
Info: PARAMETERS             ../toppar_charmm/toppar_all36_lipid_prot.str
Info: PARAMETERS             ../toppar_charmm/toppar_all36_lipid_tag.str
Info: PARAMETERS             ../toppar_charmm/toppar_all36_lipid_yeast.str
Info: PARAMETERS             ../toppar_charmm/toppar_all36_lipid_detergent.str
Info: USING ARITHMETIC MEAN TO COMBINE L-J SIGMA PARAMETERS
Info: SKIPPING rtf SECTION IN STREAM FILE
Info: SKIPPING rtf SECTION IN STREAM FILE
Info: SKIPPING rtf SECTION IN STREAM FILE
Info: SKIPPING rtf SECTION IN STREAM FILE
Info: SKIPPING rtf SECTION IN STREAM FILE
Info: SKIPPING rtf SECTION IN STREAM FILE
Info: SKIPPING rtf SECTION IN STREAM FILE
Info: SKIPPING rtf SECTION IN STREAM FILE
Info: SKIPPING rtf SECTION IN STREAM FILE
Info: SKIPPING rtf SECTION IN STREAM FILE
Info: SKIPPING rtf SECTION IN STREAM FILE
Info: SKIPPING rtf SECTION IN STREAM FILE
Info: SKIPPING rtf SECTION IN STREAM FILE
Info: SKIPPING rtf SECTION IN STREAM FILE
Info: SKIPPING rtf SECTION IN STREAM FILE
Info: SKIPPING rtf SECTION IN STREAM FILE
Info: SKIPPING rtf SECTION IN STREAM FILE
Info: SKIPPING rtf SECTION IN STREAM FILE
Info: SKIPPING rtf SECTION IN STREAM FILE
Info: SKIPPING rtf SECTION IN STREAM FILE
Info: SKIPPING rtf SECTION IN STREAM FILE
Info: SKIPPING rtf SECTION IN STREAM FILE
Info: SUMMARY OF PARAMETERS:
Info: 1251 BONDS
Info: 4182 ANGLES
Info: 11160 DIHEDRAL
Info: 310 IMPROPER
Info: 6 CROSSTERM
Info: 450 VDW
Info: 86 VDW_PAIRS
Info: 0 NBTHOLE_PAIRS
Info: STRUCTURE SUMMARY:
Info: 19357 ATOMS
Info: 13215 BONDS
Info: 7779 ANGLES
Info: 2388 DIHEDRALS
Info: 153 IMPROPERS
Info: 56 CROSSTERMS
Info: 0 EXCLUSIONS
Info: 18903 RIGID BONDS
Info: 39168 DEGREES OF FREEDOM
Info: 6607 HYDROGEN GROUPS
Info: 4 ATOMS IN LARGEST HYDROGEN GROUP
Info: 6607 MIGRATION GROUPS
Info: 4 ATOMS IN LARGEST MIGRATION GROUP
Info: TOTAL MASS = 117372 amu
Info: TOTAL CHARGE = 6 e
Info: MASS DENSITY = 0.779477 g/cm^3
Info: ATOM DENSITY = 0.0774134 atoms/A^3
Info: ADDED 23338 IMPLICIT EXCLUSIONS
Info: NONBONDED TABLE R-SQUARED SPACING: 0.0625
Info: NONBONDED TABLE SIZE: 769 POINTS
Info: REMOVING COM VELOCITY 0.0258842 -0.0561309 -0.0422961
Info: Updated CUDA force table with 4096 elements.
Info: Updated CUDA LJ table with 450 x 450 elements.
Info: Found 203 unique exclusion lists needing 592 bytes
TCL: Minimizing for 5000 steps
ETITLE: TS BOND ANGLE DIHED IMPRP ELECT VDW BOUNDARY MISC KINETIC TOTAL TEMP POTENTIAL TOTAL3 TEMPAVG PRESSURE GPRESSURE VOLUME PRESSAVG GPRESSAVG
ENERGY: 0 213.2496 212.5733 526.8060 63.2904 -77535.9318 13187.4767 0.0000 0.0000 0.0000 -63332.5357 0.0000 -63332.5357 -63332.5357 0.0000 -73.8186 -36580.4436 250047.0000 -73.8186 -36580.4436
ENERGY: 1000 62.4692 156.8489 492.6807 6.1601 -84604.8687 10499.5752 0.0000 0.0000 0.0000 -73387.1346 0.0000 -73387.1346 -73387.1346 0.0000 -41.1749 -20123.8584 250047.0000 -41.1749 -20123.8584
ENERGY: 2000 61.8335 152.7976 495.0824 5.6930 -86086.3051 11105.1103 0.0000 0.0000 0.0000 -74265.7882 0.0000 -74265.7882 -74265.7882 0.0000 -38.0455 -20453.9107 250047.0000 -38.0455 -20453.9107
ENERGY: 3000 61.5815 153.2335 497.6936 5.4516 -86948.0948 11529.9332 0.0000 0.0000 0.0000 -74700.2014 0.0000 -74700.2014 -74700.2014 0.0000 -36.4948 -20642.4132 250047.0000 -36.4948 -20642.4132
ENERGY: 4000 63.3649 156.1732 497.9272 5.0341 -87329.7197 11678.0181 0.0000 0.0000 0.0000 -74929.2022 0.0000 -74929.2022 -74929.2022 0.0000 -35.5471 -20724.1826 250047.0000 -35.5471 -20724.1826
ENERGY: 5000 60.9110 155.4677 498.1828 5.3733 -87625.6303 11813.2754 0.0000 0.0000 0.0000 -75092.4201 0.0000 -75092.4201 -75092.4201 0.0000 -34.8653 -20788.4722 250047.0000 -34.8653 -20788.4722
TCL: Setting parameter Heating to (total 50 ps)
