Info: SIMULATION PARAMETERS:
Info: TIMESTEP               2
Info: NUMBER OF STEPS        540000
Info: STEPS PER CYCLE        10
Info: PERIODIC CELL BASIS 1  60.5681 0 0
Info: PERIODIC CELL BASIS 2  0 60.5681 0
Info: PERIODIC CELL BASIS 3  0 0 51.8156
Info: PERIODIC CELL CENTER   0.05 -0.09 0.04
Info: WRAPPING WATERS AROUND PERIODIC BOUNDARIES ON OUTPUT.
Info: WRAPPING ALL CLUSTERS AROUND PERIODIC BOUNDARIES ON OUTPUT.
Info: FIRST LDB TIMESTEP     50
Info: LAST LDB TIMESTEP     -1
Info: HOM BACKGROUND SCALING 1
Info: PME BACKGROUND SCALING 1
Info: MIN ATOMS PER PATCH    40
Info: VELOCITY FILE          restartfiles/4pti_eq.vel
Info: CENTER OF MASS MOVING INITIALLY? NO
Info: DIELECTRIC             1
Info: EXCLUDE                SCALED ONE-FOUR
Info: 1-4 ELECTROSTATICS SCALED BY 1
Info: MODIFIED 1-4 VDW PARAMETERS WILL BE USED
Info: DCD FILENAME           4pti_prod.dcd
Info: DCD FREQUENCY          10000
Info: DCD FIRST STEP         550000
Info: DCD FILE WILL CONTAIN UNIT CELL DATA
Info: XST FILENAME           4pti_prod.xst
Info: XST FREQUENCY          10000
Info: NO VELOCITY DCD OUTPUT
Info: NO FORCE DCD OUTPUT
Info: OUTPUT FILENAME        4pti_prod
Info: BINARY OUTPUT FILES WILL BE USED
Info: RESTART FILENAME       4pti_prod
Info: RESTART FREQUENCY      50000
Info: RESTART FILES WILL NOT BE OVERWRITTEN
Info: BINARY RESTART FILES WILL BE USED
Info: SWITCHING ACTIVE
Info: SWITCHING ON           10
Info: SWITCHING OFF          12
Info: PAIRLIST DISTANCE      14
Info: PAIRLIST SHRINK RATE   0.01
Info: PAIRLIST GROW RATE     0.01
Info: PAIRLIST TRIGGER       0.3
Info: PAIRLISTS PER CYCLE    2
Info: PAIRLISTS ENABLED
Info: MARGIN                 1
Info: HYDROGEN GROUP CUTOFF  2.5
Info: PATCH DIMENSION        17.5
Info: ENERGY OUTPUT STEPS    10000
Info: CROSSTERM ENERGY INCLUDED IN DIHEDRAL
Info: TIMING OUTPUT STEPS    100000
Info: LANGEVIN DYNAMICS ACTIVE
Info: LANGEVIN TEMPERATURE   300
Info: LANGEVIN USING BBK INTEGRATOR
Info: LANGEVIN DAMPING COEFFICIENT IS 1 INVERSE PS
Info: LANGEVIN DYNAMICS NOT APPLIED TO HYDROGENS
Info: PARTICLE MESH EWALD (PME) ACTIVE
Info: PME TOLERANCE               1e-06
Info: PME EWALD COEFFICIENT       0.257952
Info: PME INTERPOLATION ORDER     4
Info: PME GRID DIMENSIONS         64 64 54
Info: PME MAXIMUM GRID SPACING    1
Info: FULL ELECTROSTATIC EVALUATION FREQUENCY      2
Info: USING VERLET I (r-RESPA) MTS SCHEME.
Info: C1 SPLITTING OF LONG RANGE ELECTROSTATICS
Info: PLACING ATOMS IN PATCHES BY HYDROGEN GROUPS
Info: RIGID BONDS TO HYDROGEN : ALL
Info:         ERROR TOLERANCE : 1e-05
Info:          MAX ITERATIONS : 100
Info: RIGID WATER USING SETTLE ALGORITHM
Info: RANDOM NUMBER SEED     1726140317
Info: USE HYDROGEN BONDS?    NO
Info: COORDINATE PDB         4pti.pdb
Info: STRUCTURE FILE         4pti.psf
Info: PARAMETER file: CHARMM format!
Info: PARAMETERS             ../toppar_charmm/par_all36m_prot_additions.prm
Info: PARAMETERS             ../toppar_charmm/par_all36m_prot.prm
Info: PARAMETERS             ../toppar_charmm/par_all36_na.prm
Info: PARAMETERS             ../toppar_charmm/par_all36_carb.prm
Info: PARAMETERS             ../toppar_charmm/par_all36_lipid.prm
Info: PARAMETERS             ../toppar_charmm/par_all36_cgenff.prm
Info: PARAMETERS             ../toppar_charmm/toppar_all36_moreions.str
Info: PARAMETERS             ../toppar_charmm/toppar_water_ions.str
Info: PARAMETERS             ../toppar_charmm/toppar_dum_noble_gases.str
Info: PARAMETERS             ../toppar_charmm/toppar_ions_won.str
Info: PARAMETERS             ../toppar_charmm/toppar_all36_prot_arg0.str
Info: PARAMETERS             ../toppar_charmm/toppar_all36_prot_heme.str
Info: PARAMETERS             ../toppar_charmm/toppar_all36_lipid_sphingo.str
Info: PARAMETERS             ../toppar_charmm/toppar_all36_lipid_archaeal.str
Info: PARAMETERS             ../toppar_charmm/toppar_all36_lipid_bacterial.str
Info: PARAMETERS             ../toppar_charmm/toppar_all36_lipid_cardiolipin.str
Info: PARAMETERS             ../toppar_charmm/toppar_all36_lipid_cholesterol.str
Info: PARAMETERS             ../toppar_charmm/toppar_all36_lipid_dag.str
Info: PARAMETERS             ../toppar_charmm/toppar_all36_lipid_inositol.str
Info: PARAMETERS             ../toppar_charmm/toppar_all36_lipid_lnp.str
Info: PARAMETERS             ../toppar_charmm/toppar_all36_lipid_lps.str
Info: PARAMETERS             ../toppar_charmm/toppar_all36_lipid_mycobacterial.str
Info: PARAMETERS             ../toppar_charmm/toppar_all36_lipid_miscellaneous.str
Info: PARAMETERS             ../toppar_charmm/toppar_all36_lipid_model.str
Info: PARAMETERS             ../toppar_charmm/toppar_all36_lipid_prot.str
Info: PARAMETERS             ../toppar_charmm/toppar_all36_lipid_tag.str
Info: PARAMETERS             ../toppar_charmm/toppar_all36_lipid_yeast.str
Info: PARAMETERS             ../toppar_charmm/toppar_all36_lipid_detergent.str
Info: USING ARITHMETIC MEAN TO COMBINE L-J SIGMA PARAMETERS
Info: BINARY COORDINATES     restartfiles/4pti_eq.coor
Info: FIRST TIMESTEP         540000
Info: SKIPPING rtf SECTION IN STREAM FILE
Info: SKIPPING rtf SECTION IN STREAM FILE
Info: SKIPPING rtf SECTION IN STREAM FILE
Info: SKIPPING rtf SECTION IN STREAM FILE
Info: SKIPPING rtf SECTION IN STREAM FILE
Info: SKIPPING rtf SECTION IN STREAM FILE
Info: SKIPPING rtf SECTION IN STREAM FILE
Info: SKIPPING rtf SECTION IN STREAM FILE
Info: SKIPPING rtf SECTION IN STREAM FILE
Info: SKIPPING rtf SECTION IN STREAM FILE
Info: SKIPPING rtf SECTION IN STREAM FILE
Info: SKIPPING rtf SECTION IN STREAM FILE
Info: SKIPPING rtf SECTION IN STREAM FILE
Info: SKIPPING rtf SECTION IN STREAM FILE
Info: SKIPPING rtf SECTION IN STREAM FILE
Info: SKIPPING rtf SECTION IN STREAM FILE
Info: SKIPPING rtf SECTION IN STREAM FILE
Info: SKIPPING rtf SECTION IN STREAM FILE
Info: SKIPPING rtf SECTION IN STREAM FILE
Info: SKIPPING rtf SECTION IN STREAM FILE
Info: SKIPPING rtf SECTION IN STREAM FILE
Info: SKIPPING rtf SECTION IN STREAM FILE
Info: SUMMARY OF PARAMETERS:
Info: 1251 BONDS
Info: 4182 ANGLES
Info: 11160 DIHEDRAL
Info: 310 IMPROPER
Info: 6 CROSSTERM
Info: 450 VDW
Info: 86 VDW_PAIRS
Info: 0 NBTHOLE_PAIRS
Info: STRUCTURE SUMMARY:
Info: 19357 ATOMS
Info: 13215 BONDS
Info: 7779 ANGLES
Info: 2388 DIHEDRALS
Info: 153 IMPROPERS
Info: 56 CROSSTERMS
Info: 0 EXCLUSIONS
Info: 18903 RIGID BONDS
Info: 39168 DEGREES OF FREEDOM
Info: 6607 HYDROGEN GROUPS
Info: 4 ATOMS IN LARGEST HYDROGEN GROUP
Info: 6607 MIGRATION GROUPS
Info: 4 ATOMS IN LARGEST MIGRATION GROUP
Info: TOTAL MASS = 117372 amu
Info: TOTAL CHARGE = 6 e
Info: MASS DENSITY = 1.02536 g/cm^3
Info: ATOM DENSITY = 0.101833 atoms/A^3
Info: ADDED 23338 IMPLICIT EXCLUSIONS
Info: NONBONDED TABLE R-SQUARED SPACING: 0.0625
Info: NONBONDED TABLE SIZE: 769 POINTS
Info: REMOVING COM VELOCITY -0.0206334 0.0688986 -0.0126762
Info: Updated CUDA force table with 4096 elements.
Info: Updated CUDA LJ table with 450 x 450 elements.
Info: Found 203 unique exclusion lists needing 592 bytes
TCL: Running for 5000000 steps
ETITLE: TS BOND ANGLE DIHED IMPRP ELECT VDW BOUNDARY MISC KINETIC TOTAL TEMP POTENTIAL TOTAL3 TEMPAVG PRESSURE GPRESSURE VOLUME PRESSAVG GPRESSAVG
ENERGY: 540000 209.6340 487.5182 557.1284 30.7226 -69645.0662 6142.4450 0.0000 0.0000 11771.4813 -50446.1366 302.4754 -62217.6179 -50415.4795 302.4754 -94.5333 -57.0043 190085.5380 -94.5333 -57.0043
ENERGY: 1540000 211.3058 498.1338 544.0364 32.7437 -69437.1259 6133.6773 0.0000 0.0000 11674.4518 -50342.7772 299.9822 -62017.2290 -50309.1752 299.3100 -183.2540 -147.3018 190085.5380 28.8286 28.8098
ENERGY: 2540000 220.6990 476.8436 558.2433 32.2172 -69461.6160 6146.7384 0.0000 0.0000 11754.6367 -50272.2379 302.0426 -62026.8746 -50240.7570 299.7081 -212.4705 -169.6395 190085.5380 46.7558 46.7159
ENERGY: 3540000 218.7851 521.3304 548.7524 37.4478 -69306.2046 6074.1031 0.0000 0.0000 11737.6973 -50168.0884 301.6073 -61905.7857 -50139.7376 299.3501 -225.3303 -194.3658 190085.5380 44.2325 44.2099
ENERGY: 4540000 198.1611 510.5293 542.7829 32.8492 -69380.5925 6285.9161 0.0000 0.0000 11664.7043 -50145.6495 299.7317 -61810.3538 -50114.9880 299.8158 122.7149 156.2635 190085.5380 46.4715 46.5028
ENERGY: 5540000 203.9714 501.2958 522.7465 23.7133 -69552.0335 6131.3674 0.0000 0.0000 11616.7575 -50552.1817 298.4997 -62168.9392 -50526.8439 297.8040 -144.0551 -114.5328 190085.5380 27.9747 28.0413
