Info: SIMULATION PARAMETERS:
Info: TIMESTEP               2
Info: NUMBER OF STEPS        190000
Info: STEPS PER CYCLE        10
Info: PERIODIC CELL BASIS 1  60.9543 0 0
Info: PERIODIC CELL BASIS 2  0 56.2655 0
Info: PERIODIC CELL BASIS 3  0 0 61.1516
Info: PERIODIC CELL CENTER   14.5 22 7
Info: WRAPPING WATERS AROUND PERIODIC BOUNDARIES ON OUTPUT.
Info: WRAPPING ALL CLUSTERS AROUND PERIODIC BOUNDARIES ON OUTPUT.
Info: FIRST LDB TIMESTEP     50
Info: LAST LDB TIMESTEP     -1
Info: HOM BACKGROUND SCALING 1
Info: PME BACKGROUND SCALING 1
Info: MIN ATOMS PER PATCH    40
Info: VELOCITY FILE          4pti_box_heating.vel
Info: CENTER OF MASS MOVING INITIALLY? NO
Info: DIELECTRIC             1
Info: EXCLUDE                SCALED ONE-FOUR
Info: 1-4 ELECTROSTATICS SCALED BY 1
Info: MODIFIED 1-4 VDW PARAMETERS WILL BE USED
Info: DCD FILENAME           4pti_box_eq_01.dcd
Info: DCD FREQUENCY          10000
Info: DCD FIRST STEP         200000
Info: DCD FILE WILL CONTAIN UNIT CELL DATA
Info: XST FILENAME           4pti_box_eq_01.xst
Info: XST FREQUENCY          10000
Info: NO VELOCITY DCD OUTPUT
Info: NO FORCE DCD OUTPUT
Info: OUTPUT FILENAME        4pti_box_eq_01
Info: BINARY OUTPUT FILES WILL BE USED
Info: RESTART FILENAME       4pti_box_eq_01.restart
Info: RESTART FREQUENCY      20000
Info: BINARY RESTART FILES WILL BE USED
Info: SWITCHING ACTIVE
Info: SWITCHING ON           10
Info: SWITCHING OFF          12
Info: PAIRLIST DISTANCE      14
Info: PAIRLIST SHRINK RATE   0.01
Info: PAIRLIST GROW RATE     0.01
Info: PAIRLIST TRIGGER       0.3
Info: PAIRLISTS PER CYCLE    2
Info: PAIRLISTS ENABLED
Info: MARGIN                 1
Info: HYDROGEN GROUP CUTOFF  2.5
Info: PATCH DIMENSION        17.5
Info: ENERGY OUTPUT STEPS    10000
Info: CROSSTERM ENERGY INCLUDED IN DIHEDRAL
Info: TIMING OUTPUT STEPS    100000
Info: LANGEVIN DYNAMICS ACTIVE
Info: LANGEVIN TEMPERATURE   300
Info: LANGEVIN USING BBK INTEGRATOR
Info: LANGEVIN DAMPING COEFFICIENT IS 1 INVERSE PS
Info: LANGEVIN DYNAMICS NOT APPLIED TO HYDROGENS
Info: LANGEVIN PISTON PRESSURE CONTROL ACTIVE
Info:        TARGET PRESSURE IS 1.01325 BAR
Info:     OSCILLATION PERIOD IS 200 FS
Info:             DECAY TIME IS 50 FS
Info:     PISTON TEMPERATURE IS 300 K
Info:       PRESSURE CONTROL IS GROUP-BASED
Info:    INITIAL STRAIN RATE IS -4.51094e-05 -4.51094e-05 -6.44252e-05
Info:       CELL FLUCTUATION IS ANISOTROPIC
Info:     SHAPE OF CELL IS CONSTRAINED IN X-Y PLANE
Info: PARTICLE MESH EWALD (PME) ACTIVE
Info: PME TOLERANCE               1e-06
Info: PME EWALD COEFFICIENT       0.257952
Info: PME INTERPOLATION ORDER     4
Info: PME GRID DIMENSIONS         64 60 64
Info: PME MAXIMUM GRID SPACING    1
Info: FULL ELECTROSTATIC EVALUATION FREQUENCY      2
Info: USING VERLET I (r-RESPA) MTS SCHEME.
Info: C1 SPLITTING OF LONG RANGE ELECTROSTATICS
Info: PLACING ATOMS IN PATCHES BY HYDROGEN GROUPS
Info: RIGID BONDS TO HYDROGEN : ALL
Info:         ERROR TOLERANCE : 1e-05
Info:          MAX ITERATIONS : 100
Info: RIGID WATER USING SETTLE ALGORITHM
Info: RANDOM NUMBER SEED     1712149801
Info: USE HYDROGEN BONDS?    NO
Info: COORDINATE PDB         4pti_box.pdb
Info: STRUCTURE FILE         4pti_box.psf
Info: PARAMETER file: CHARMM format!
Info: PARAMETERS             ../toppar_charmm/par_all36m_prot_additions.prm
Info: PARAMETERS             ../toppar_charmm/par_all36m_prot.prm
Info: PARAMETERS             ../toppar_charmm/par_all36_na.prm
Info: PARAMETERS             ../toppar_charmm/par_all36_carb.prm
Info: PARAMETERS             ../toppar_charmm/par_all36_lipid.prm
Info: PARAMETERS             ../toppar_charmm/par_all36_cgenff.prm
Info: PARAMETERS             ../toppar_charmm/toppar_all36_moreions.str
Info: PARAMETERS             ../toppar_charmm/toppar_water_ions.str
Info: PARAMETERS             ../toppar_charmm/toppar_dum_noble_gases.str
Info: PARAMETERS             ../toppar_charmm/toppar_ions_won.str
Info: PARAMETERS             ../toppar_charmm/toppar_all36_prot_arg0.str
Info: PARAMETERS             ../toppar_charmm/toppar_all36_prot_heme.str
Info: PARAMETERS             ../toppar_charmm/toppar_all36_lipid_sphingo.str
Info: PARAMETERS             ../toppar_charmm/toppar_all36_lipid_archaeal.str
Info: PARAMETERS             ../toppar_charmm/toppar_all36_lipid_bacterial.str
Info: PARAMETERS             ../toppar_charmm/toppar_all36_lipid_cardiolipin.str
Info: PARAMETERS             ../toppar_charmm/toppar_all36_lipid_cholesterol.str
Info: PARAMETERS             ../toppar_charmm/toppar_all36_lipid_dag.str
Info: PARAMETERS             ../toppar_charmm/toppar_all36_lipid_inositol.str
Info: PARAMETERS             ../toppar_charmm/toppar_all36_lipid_lnp.str
Info: PARAMETERS             ../toppar_charmm/toppar_all36_lipid_lps.str
Info: PARAMETERS             ../toppar_charmm/toppar_all36_lipid_mycobacterial.str
Info: PARAMETERS             ../toppar_charmm/toppar_all36_lipid_miscellaneous.str
Info: PARAMETERS             ../toppar_charmm/toppar_all36_lipid_model.str
Info: PARAMETERS             ../toppar_charmm/toppar_all36_lipid_prot.str
Info: PARAMETERS             ../toppar_charmm/toppar_all36_lipid_tag.str
Info: PARAMETERS             ../toppar_charmm/toppar_all36_lipid_yeast.str
Info: PARAMETERS             ../toppar_charmm/toppar_all36_lipid_detergent.str
Info: USING ARITHMETIC MEAN TO COMBINE L-J SIGMA PARAMETERS
Info: BINARY COORDINATES     4pti_box_heating.coor
Info: FIRST TIMESTEP         190000
Info: SKIPPING rtf SECTION IN STREAM FILE
Info: SKIPPING rtf SECTION IN STREAM FILE
Info: SKIPPING rtf SECTION IN STREAM FILE
Info: SKIPPING rtf SECTION IN STREAM FILE
Info: SKIPPING rtf SECTION IN STREAM FILE
Info: SKIPPING rtf SECTION IN STREAM FILE
Info: SKIPPING rtf SECTION IN STREAM FILE
Info: SKIPPING rtf SECTION IN STREAM FILE
Info: SKIPPING rtf SECTION IN STREAM FILE
Info: SKIPPING rtf SECTION IN STREAM FILE
Info: SKIPPING rtf SECTION IN STREAM FILE
Info: SKIPPING rtf SECTION IN STREAM FILE
Info: SKIPPING rtf SECTION IN STREAM FILE
Info: SKIPPING rtf SECTION IN STREAM FILE
Info: SKIPPING rtf SECTION IN STREAM FILE
Info: SKIPPING rtf SECTION IN STREAM FILE
Info: SKIPPING rtf SECTION IN STREAM FILE
Info: SKIPPING rtf SECTION IN STREAM FILE
Info: SKIPPING rtf SECTION IN STREAM FILE
Info: SKIPPING rtf SECTION IN STREAM FILE
Info: SKIPPING rtf SECTION IN STREAM FILE
Info: SKIPPING rtf SECTION IN STREAM FILE
Info: SUMMARY OF PARAMETERS:
Info: 1251 BONDS
Info: 4182 ANGLES
Info: 11160 DIHEDRAL
Info: 310 IMPROPER
Info: 6 CROSSTERM
Info: 450 VDW
Info: 86 VDW_PAIRS
Info: 0 NBTHOLE_PAIRS
Info: STRUCTURE SUMMARY:
Info: 21955 ATOMS
Info: 14948 BONDS
Info: 8647 ANGLES
Info: 2391 DIHEDRALS
Info: 153 IMPROPERS
Info: 56 CROSSTERMS
Info: 0 EXCLUSIONS
Info: 21501 RIGID BONDS
Info: 44364 DEGREES OF FREEDOM
Info: 7475 HYDROGEN GROUPS
Info: 4 ATOMS IN LARGEST HYDROGEN GROUP
Info: 7475 MIGRATION GROUPS
Info: 4 ATOMS IN LARGEST MIGRATION GROUP
Info: TOTAL MASS = 133004 amu
Info: TOTAL CHARGE = 6 e
Info: MASS DENSITY = 1.0531 g/cm^3
Info: ATOM DENSITY = 0.104684 atoms/A^3
Info: ADDED 25942 IMPLICIT EXCLUSIONS
Info: NONBONDED TABLE R-SQUARED SPACING: 0.0625
Info: NONBONDED TABLE SIZE: 769 POINTS
Info: REMOVING COM VELOCITY 0 0 0
Info: Updated CUDA force table with 4096 elements.
Info: Updated CUDA LJ table with 450 x 450 elements.
Info: Found 210 unique exclusion lists needing 2068 bytes
TCL: Running for 20000000 steps
ETITLE: TS BOND ANGLE DIHED IMPRP ELECT VDW BOUNDARY MISC KINETIC TOTAL TEMP POTENTIAL TOTAL3 TEMPAVG PRESSURE GPRESSURE VOLUME PRESSAVG GPRESSAVG
ENERGY: 190000 66.0726 170.1742 446.8588 7.2100 -100089.5960 10482.2592 0.0000 0.0000 0.0000 -88917.0212 0.0000 -88917.0212 -88916.9281 0.0000 -4261.4745 -4225.2720 209726.8809 -4261.4745 -4225.2720
ENERGY: 300000 216.3484 519.8354 520.1792 33.7225 -78557.8323 7019.4708 0.0000 0.0000 13238.8040 -57009.4719 300.3367 -70248.2760 -56975.3074 299.8239 15.0055 50.5397 216434.1928 0.1687 0.1437
ENERGY: 410000 202.5237 502.8178 521.6996 28.7030 -78830.0394 7150.6808 0.0000 0.0000 13182.1943 -57241.4202 299.0525 -70423.6145 -57212.6603 299.4656 -113.1682 -75.1710 216341.8475 -1.5886 -1.5798
ENERGY: 530000 212.1832 497.7027 538.6003 28.0607 -78584.1999 7021.9826 0.0000 0.0000 13203.0437 -57082.6268 299.5255 -70285.6705 -57048.2740 298.6653 2.6172 36.5655 216124.1197 7.8609 7.8057
ENERGY: 640000 209.9888 531.1144 535.4844 28.3893 -79150.0925 7238.9325 0.0000 0.0000 13211.2614 -57394.9217 299.7119 -70606.1831 -57361.8867 299.8940 83.8939 129.1173 215460.5823 1.6950 1.6990
ENERGY: 750000 217.6870 512.0401 531.9140 35.1627 -78828.8310 6961.8098 0.0000 0.0000 13132.2541 -57437.9633 297.9195 -70570.2174 -57403.9063 299.0286 -143.0215 -114.3342 214822.9399 -4.6257 -4.5903
