Info: SIMULATION PARAMETERS:
Info: TIMESTEP               2
Info: NUMBER OF STEPS        740000
Info: STEPS PER CYCLE        10
Info: PERIODIC CELL BASIS 1  67.6814 0 0
Info: PERIODIC CELL BASIS 2  0 62.4752 0
Info: PERIODIC CELL BASIS 3  0 0 51.0517
Info: PERIODIC CELL CENTER   14.5 22 7
Info: WRAPPING WATERS AROUND PERIODIC BOUNDARIES ON OUTPUT.
Info: WRAPPING ALL CLUSTERS AROUND PERIODIC BOUNDARIES ON OUTPUT.
Info: FIRST LDB TIMESTEP     50
Info: LAST LDB TIMESTEP     -1
Info: HOM BACKGROUND SCALING 1
Info: PME BACKGROUND SCALING 1
Info: MIN ATOMS PER PATCH    40
Info: VELOCITY FILE          4pti_box_eq_01.restart.vel
Info: CENTER OF MASS MOVING INITIALLY? NO
Info: DIELECTRIC             1
Info: EXCLUDE                SCALED ONE-FOUR
Info: 1-4 ELECTROSTATICS SCALED BY 1
Info: MODIFIED 1-4 VDW PARAMETERS WILL BE USED
Info: DCD FILENAME           4pti_box_eq_02.dcd
Info: DCD FREQUENCY          10000
Info: DCD FIRST STEP         750000
Info: DCD FILE WILL CONTAIN UNIT CELL DATA
Info: XST FILENAME           4pti_box_eq_02.xst
Info: XST FREQUENCY          10000
Info: NO VELOCITY DCD OUTPUT
Info: NO FORCE DCD OUTPUT
Info: OUTPUT FILENAME        4pti_box_eq_02
Info: BINARY OUTPUT FILES WILL BE USED
Info: RESTART FILENAME       4pti_box_eq_02.restart
Info: RESTART FREQUENCY      20000
Info: BINARY RESTART FILES WILL BE USED
Info: SWITCHING ACTIVE
Info: SWITCHING ON           10
Info: SWITCHING OFF          12
Info: PAIRLIST DISTANCE      14
Info: PAIRLIST SHRINK RATE   0.01
Info: PAIRLIST GROW RATE     0.01
Info: PAIRLIST TRIGGER       0.3
Info: PAIRLISTS PER CYCLE    2
Info: PAIRLISTS ENABLED
Info: MARGIN                 3
Info: HYDROGEN GROUP CUTOFF  2.5
Info: PATCH DIMENSION        19.5
Info: ENERGY OUTPUT STEPS    10000
Info: CROSSTERM ENERGY INCLUDED IN DIHEDRAL
Info: TIMING OUTPUT STEPS    100000
Info: LANGEVIN DYNAMICS ACTIVE
Info: LANGEVIN TEMPERATURE   300
Info: LANGEVIN USING BBK INTEGRATOR
Info: LANGEVIN DAMPING COEFFICIENT IS 1 INVERSE PS
Info: LANGEVIN DYNAMICS NOT APPLIED TO HYDROGENS
Info: LANGEVIN PISTON PRESSURE CONTROL ACTIVE
Info:        TARGET PRESSURE IS 1.01325 BAR
Info:     OSCILLATION PERIOD IS 200 FS
Info:             DECAY TIME IS 50 FS
Info:     PISTON TEMPERATURE IS 300 K
Info:       PRESSURE CONTROL IS GROUP-BASED
Info:    INITIAL STRAIN RATE IS -1.11744e-05 -1.11744e-05 -0.000151597
Info:       CELL FLUCTUATION IS ANISOTROPIC
Info:     SHAPE OF CELL IS CONSTRAINED IN X-Y PLANE
Info: PARTICLE MESH EWALD (PME) ACTIVE
Info: PME TOLERANCE               1e-06
Info: PME EWALD COEFFICIENT       0.257952
Info: PME INTERPOLATION ORDER     4
Info: PME GRID DIMENSIONS         72 64 54
Info: PME MAXIMUM GRID SPACING    1
Info: FULL ELECTROSTATIC EVALUATION FREQUENCY      2
Info: USING VERLET I (r-RESPA) MTS SCHEME.
Info: C1 SPLITTING OF LONG RANGE ELECTROSTATICS
Info: PLACING ATOMS IN PATCHES BY HYDROGEN GROUPS
Info: RIGID BONDS TO HYDROGEN : ALL
Info:         ERROR TOLERANCE : 1e-05
Info:          MAX ITERATIONS : 100
Info: RIGID WATER USING SETTLE ALGORITHM
Info: RANDOM NUMBER SEED     1712151513
Info: USE HYDROGEN BONDS?    NO
Info: COORDINATE PDB         4pti_box.pdb
Info: STRUCTURE FILE         4pti_box.psf
Info: PARAMETER file: CHARMM format!
Info: PARAMETERS             ../toppar_charmm/par_all36m_prot_additions.prm
Info: PARAMETERS             ../toppar_charmm/par_all36m_prot.prm
Info: PARAMETERS             ../toppar_charmm/par_all36_na.prm
Info: PARAMETERS             ../toppar_charmm/par_all36_carb.prm
Info: PARAMETERS             ../toppar_charmm/par_all36_lipid.prm
Info: PARAMETERS             ../toppar_charmm/par_all36_cgenff.prm
Info: PARAMETERS             ../toppar_charmm/toppar_all36_moreions.str
Info: PARAMETERS             ../toppar_charmm/toppar_water_ions.str
Info: PARAMETERS             ../toppar_charmm/toppar_dum_noble_gases.str
Info: PARAMETERS             ../toppar_charmm/toppar_ions_won.str
Info: PARAMETERS             ../toppar_charmm/toppar_all36_prot_arg0.str
Info: PARAMETERS             ../toppar_charmm/toppar_all36_prot_heme.str
Info: PARAMETERS             ../toppar_charmm/toppar_all36_lipid_sphingo.str
Info: PARAMETERS             ../toppar_charmm/toppar_all36_lipid_archaeal.str
Info: PARAMETERS             ../toppar_charmm/toppar_all36_lipid_bacterial.str
Info: PARAMETERS             ../toppar_charmm/toppar_all36_lipid_cardiolipin.str
Info: PARAMETERS             ../toppar_charmm/toppar_all36_lipid_cholesterol.str
Info: PARAMETERS             ../toppar_charmm/toppar_all36_lipid_dag.str
Info: PARAMETERS             ../toppar_charmm/toppar_all36_lipid_inositol.str
Info: PARAMETERS             ../toppar_charmm/toppar_all36_lipid_lnp.str
Info: PARAMETERS             ../toppar_charmm/toppar_all36_lipid_lps.str
Info: PARAMETERS             ../toppar_charmm/toppar_all36_lipid_mycobacterial.str
Info: PARAMETERS             ../toppar_charmm/toppar_all36_lipid_miscellaneous.str
Info: PARAMETERS             ../toppar_charmm/toppar_all36_lipid_model.str
Info: PARAMETERS             ../toppar_charmm/toppar_all36_lipid_prot.str
Info: PARAMETERS             ../toppar_charmm/toppar_all36_lipid_tag.str
Info: PARAMETERS             ../toppar_charmm/toppar_all36_lipid_yeast.str
Info: PARAMETERS             ../toppar_charmm/toppar_all36_lipid_detergent.str
Info: USING ARITHMETIC MEAN TO COMBINE L-J SIGMA PARAMETERS
Info: BINARY COORDINATES     4pti_box_eq_01.restart.coor
Info: FIRST TIMESTEP         740000
Info: SKIPPING rtf SECTION IN STREAM FILE
Info: SKIPPING rtf SECTION IN STREAM FILE
Info: SKIPPING rtf SECTION IN STREAM FILE
Info: SKIPPING rtf SECTION IN STREAM FILE
Info: SKIPPING rtf SECTION IN STREAM FILE
Info: SKIPPING rtf SECTION IN STREAM FILE
Info: SKIPPING rtf SECTION IN STREAM FILE
Info: SKIPPING rtf SECTION IN STREAM FILE
Info: SKIPPING rtf SECTION IN STREAM FILE
Info: SKIPPING rtf SECTION IN STREAM FILE
Info: SKIPPING rtf SECTION IN STREAM FILE
Info: SKIPPING rtf SECTION IN STREAM FILE
Info: SKIPPING rtf SECTION IN STREAM FILE
Info: SKIPPING rtf SECTION IN STREAM FILE
Info: SKIPPING rtf SECTION IN STREAM FILE
Info: SKIPPING rtf SECTION IN STREAM FILE
Info: SKIPPING rtf SECTION IN STREAM FILE
Info: SKIPPING rtf SECTION IN STREAM FILE
Info: SKIPPING rtf SECTION IN STREAM FILE
Info: SKIPPING rtf SECTION IN STREAM FILE
Info: SKIPPING rtf SECTION IN STREAM FILE
Info: SKIPPING rtf SECTION IN STREAM FILE
Info: SUMMARY OF PARAMETERS:
Info: 1251 BONDS
Info: 4182 ANGLES
Info: 11160 DIHEDRAL
Info: 310 IMPROPER
Info: 6 CROSSTERM
Info: 450 VDW
Info: 86 VDW_PAIRS
Info: 0 NBTHOLE_PAIRS
Info: STRUCTURE SUMMARY:
Info: 21955 ATOMS
Info: 14948 BONDS
Info: 8647 ANGLES
Info: 2391 DIHEDRALS
Info: 153 IMPROPERS
Info: 56 CROSSTERMS
Info: 0 EXCLUSIONS
Info: 21501 RIGID BONDS
Info: 44364 DEGREES OF FREEDOM
Info: 7475 HYDROGEN GROUPS
Info: 4 ATOMS IN LARGEST HYDROGEN GROUP
Info: 7475 MIGRATION GROUPS
Info: 4 ATOMS IN LARGEST MIGRATION GROUP
Info: TOTAL MASS = 133004 amu
Info: TOTAL CHARGE = 6 e
Info: MASS DENSITY = 1.02314 g/cm^3
Info: ATOM DENSITY = 0.101706 atoms/A^3
Info: ADDED 25942 IMPLICIT EXCLUSIONS
Info: NONBONDED TABLE R-SQUARED SPACING: 0.0625
Info: NONBONDED TABLE SIZE: 769 POINTS
Info: REMOVING COM VELOCITY -0.0901883 0.0821827 -0.00627303
Info: Updated CUDA force table with 4096 elements.
Info: Updated CUDA LJ table with 450 x 450 elements.
Info: Found 210 unique exclusion lists needing 2068 bytes
TCL: Running for 19250000 steps
ETITLE: TS BOND ANGLE DIHED IMPRP ELECT VDW BOUNDARY MISC KINETIC TOTAL TEMP POTENTIAL TOTAL3 TEMPAVG PRESSURE GPRESSURE VOLUME PRESSAVG GPRESSAVG
ENERGY: 740000 203.2728 524.7482 530.4624 25.0021 -78766.1210 7160.7123 0.0000 0.0000 13172.3408 -57149.5824 298.8289 -70321.9232 -57115.3416 298.8289 84.7274 118.0468 215867.5182 84.7274 118.0468
ENERGY: 1120000 204.6347 515.3580 518.8661 28.5132 -78806.6742 7127.4464 0.0000 0.0000 13221.0012 -57190.8547 299.9328 -70411.8559 -57155.0073 298.9535 -47.6594 -14.8025 216538.7988 -0.5648 -0.6016
ENERGY: 1500000 191.9601 511.2639 532.1907 33.6865 -79205.2513 7457.6507 0.0000 0.0000 13331.2280 -57147.2716 302.4335 -70478.4996 -57116.5480 300.7461 562.0258 591.8009 215374.5443 6.6441 6.6419
ENERGY: 1870000 215.4622 482.9734 516.9988 32.8397 -78850.3339 7065.1312 0.0000 0.0000 13177.3899 -57359.5388 298.9435 -70536.9287 -57327.5898 298.7059 -87.5480 -49.2279 215658.0285 -0.8799 -0.8729
ENERGY: 2250000 193.9961 533.2317 532.7762 30.7591 -79014.1050 7091.2761 0.0000 0.0000 13108.4631 -57523.6027 297.3798 -70632.0659 -57492.3022 299.1007 -76.6500 -43.1805 215009.8014 5.8922 5.8830
ENERGY: 2630000 193.1057 527.6107 510.5681 31.6923 -78749.9801 7101.4806 0.0000 0.0000 13200.4865 -57185.0362 299.4675 -70385.5227 -57146.6122 299.8543 39.4254 73.1906 217380.4721 0.0705 0.0333
